REMARK  Name = 
REMARK  4 active torsions:
REMARK  status: ('A' for Active; 'I' for Inactive)
REMARK    1  A    between atoms: N_8  and  C_9
REMARK    2  A    between atoms: C_11  and  C_12
REMARK    3  A    between atoms: C_12  and  O_13
REMARK    4  A    between atoms: N_17  and  C_18
REMARK                            x       y       z     vdW  Elec       q    Type
REMARK                         _______ _______ _______ _____ _____    ______ ____
ROOT
ATOM      1  N   UNL     1      -0.476   2.845  -0.790  0.00  0.00    -0.327 N 
ATOM      2  C   UNL     1      -0.685   1.479  -0.438  0.00  0.00    +0.216 A 
ATOM      3  N   UNL     1       0.377   0.618  -0.393  0.00  0.00    -0.195 NA
ATOM      4  C   UNL     1       0.137  -0.673  -0.059  0.00  0.00    +0.168 A 
ATOM      5  C   UNL     1      -1.102  -1.132   0.233  0.00  0.00    +0.148 A 
ATOM      6  N   UNL     1      -1.057  -2.439   0.553  0.00  0.00    -0.231 NA
ATOM      7  C   UNL     1       0.267  -2.733   0.435  0.00  0.00    +0.202 A 
ATOM      8  N   UNL     1       1.024  -1.673   0.051  0.00  0.00    -0.308 N 
ATOM      9  C   UNL     1      -2.191  -0.269   0.194  0.00  0.00    +0.152 A 
ATOM     10  N   UNL     1      -3.517  -0.721   0.498  0.00  0.00    -0.324 N 
ATOM     11  N   UNL     1      -1.950   1.034  -0.147  0.00  0.00    -0.198 NA
ATOM     12  H   UNL     1       0.481   3.192  -1.020  0.00  0.00    +0.145 HD
ATOM     13  H   UNL     1      -1.281   3.510  -0.824  0.00  0.00    +0.145 HD
ATOM     14  H   UNL     1      -3.665  -1.705   0.817  0.00  0.00    +0.148 HD
ENDROOT
BRANCH   8  15
ATOM     15  C   UNL     1       2.485  -1.642  -0.086  0.00  0.00    +0.113 C 
ATOM     16  C   UNL     1       3.153  -0.903   1.085  0.00  0.00    +0.039 C 
ATOM     17  C   UNL     1       4.152   0.074   0.438  0.00  0.00    +0.039 C 
ATOM     18  C   UNL     1       3.805   0.049  -1.013  0.00  0.00    -0.023 C 
ATOM     19  C   UNL     1       2.907  -0.880  -1.296  0.00  0.00    -0.006 C 
BRANCH  17  20
ATOM     20  C   UNL     1       4.086   1.494   1.026  0.00  0.00    +0.163 C 
BRANCH  20  21
ATOM     21  O   UNL     1       2.812   2.060   0.868  0.00  0.00    -0.394 OA
ATOM     22  H   UNL     1       2.786   2.459  -0.041  0.00  0.00    +0.209 HD
ENDBRANCH  20  21
ENDBRANCH  17  20
ENDBRANCH   8  15
BRANCH  10  23
ATOM     23  C   UNL     1      -4.652   0.197   0.501  0.00  0.00    +0.072 C 
ATOM     24  C   UNL     1      -5.143   0.546  -0.894  0.00  0.00    +0.024 C 
ATOM     25  C   UNL     1      -5.940  -0.414  -0.024  0.00  0.00    +0.024 C 
ENDBRANCH  10  23
TORSDOF 4
