REMARK  Name = 
REMARK  6 active torsions:
REMARK  status: ('A' for Active; 'I' for Inactive)
REMARK    1  A    between atoms: C_1  and  C_2
REMARK    2  A    between atoms: C_2  and  O_4
REMARK    3  A    between atoms: O_4  and  C_5
REMARK    4  A    between atoms: C_8  and  C_9
REMARK    5  A    between atoms: C_13  and  C_14
REMARK    6  A    between atoms: C_18  and  C_19
REMARK                            x       y       z     vdW  Elec       q    Type
REMARK                         _______ _______ _______ _____ _____    ______ ____
ROOT
ATOM      1  C   UNL     1       4.576   0.164   0.365  0.00  0.00    +0.180 C 
ATOM      2  C   UNL     1       3.952   1.360   1.108  0.00  0.00    +0.046 C 
ATOM      3  C   UNL     1       2.423   1.216   1.241  0.00  0.00    +0.015 C 
ATOM      4  C   UNL     1       1.673   0.983  -0.111  0.00  0.00    -0.008 C 
ATOM      5  C   UNL     1       1.778   2.276  -0.965  0.00  0.00    +0.016 C 
ATOM      6  C   UNL     1       0.149   0.643   0.231  0.00  0.00    +0.003 C 
ATOM      7  C   UNL     1      -0.942   1.318  -0.672  0.00  0.00    +0.005 C 
ATOM      8  C   UNL     1      -2.405   0.974  -0.257  0.00  0.00    +0.012 C 
ATOM      9  C   UNL     1      -2.632  -0.555  -0.201  0.00  0.00    -0.003 C 
ATOM     10  C   UNL     1      -2.674  -1.181  -1.630  0.00  0.00    +0.016 C 
ATOM     11  C   UNL     1      -1.558  -1.130   0.744  0.00  0.00    +0.007 C 
ATOM     12  C   UNL     1      -2.083  -2.499   1.145  0.00  0.00    +0.032 C 
ATOM     13  C   UNL     1      -3.552  -2.200   1.181  0.00  0.00    -0.022 C 
ATOM     14  C   UNL     1      -3.856  -1.063   0.533  0.00  0.00    -0.036 C 
ATOM     15  C   UNL     1      -0.086  -0.891   0.353  0.00  0.00    +0.001 C 
ATOM     16  C   UNL     1       0.393  -1.608  -0.912  0.00  0.00    +0.031 C 
ATOM     17  C   UNL     1       1.846  -1.344  -1.127  0.00  0.00    -0.027 C 
ATOM     18  C   UNL     1       2.418  -0.157  -0.836  0.00  0.00    -0.064 C 
ATOM     19  C   UNL     1       3.919  -0.024  -1.005  0.00  0.00    +0.075 C 
ENDROOT
BRANCH  14  20
ATOM     20  C   UNL     1      -5.218  -0.458   0.525  0.00  0.00    -0.004 A 
ATOM     21  C   UNL     1      -5.686   0.302  -0.563  0.00  0.00    +0.118 A 
ATOM     22  N   UNL     1      -6.930   0.850  -0.537  0.00  0.00    -0.263 NA
ATOM     23  C   UNL     1      -7.761   0.694   0.526  0.00  0.00    +0.111 A 
ATOM     24  C   UNL     1      -7.346  -0.045   1.631  0.00  0.00    +0.020 A 
ATOM     25  C   UNL     1      -6.074  -0.620   1.631  0.00  0.00    +0.011 A 
ENDBRANCH  14  20
BRANCH   1  26
ATOM     26  O   UNL     1       5.976   0.376   0.180  0.00  0.00    -0.461 OA
BRANCH  26  28
ATOM     27  C   UNL     1       8.351   0.556   0.929  0.00  0.00    +0.136 C 
ATOM     28  C   UNL     1       6.920   0.241   1.204  0.00  0.00    +0.304 C 
ATOM     29  O   UNL     1       6.572  -0.114   2.363  0.00  0.00    -0.251 OA
ENDBRANCH  26  28
ENDBRANCH   1  26
TORSDOF 3
