REMARK  Name = 
REMARK  6 active torsions:
REMARK  status: ('A' for Active; 'I' for Inactive)
REMARK    1  A    between atoms: C_1  and  C_2
REMARK    2  A    between atoms: N_4  and  C_5
REMARK    3  A    between atoms: C_5  and  C_6
REMARK    4  A    between atoms: C_6  and  C_7
REMARK    5  A    between atoms: C_7  and  S_8
REMARK    6  A    between atoms: S_8  and  O_9
REMARK                            x       y       z     vdW  Elec       q    Type
REMARK                         _______ _______ _______ _____ _____    ______ ____
ROOT
ATOM      1  C   UNL     1      -0.529   0.696   0.276  0.00  0.00    +0.044 C 
ENDROOT
BRANCH   1   2
ATOM      2  C   UNL     1       0.085  -0.686   0.018  0.00  0.00    +0.106 C 
BRANCH   2   6
ATOM      3  C   UNL     1       3.924  -0.081  -0.277  0.00  0.00    +0.109 C 
ATOM      4  C   UNL     1       2.561  -0.206   0.323  0.00  0.00    +0.210 C 
ATOM      5  O   UNL     1       2.410  -0.045   1.565  0.00  0.00    -0.276 OA
ATOM      6  N   UNL     1       1.443  -0.550  -0.506  0.00  0.00    -0.315 N 
ATOM      7  H   UNL     1       1.611  -0.767  -1.515  0.00  0.00    +0.149 HD
ENDBRANCH   2   6
ENDBRANCH   1   2
BRANCH   1   8
ATOM      8  C   UNL     1      -1.903   0.616   0.954  0.00  0.00    +0.199 C 
BRANCH   8   9
ATOM      9  S   UNL     1      -3.170  -0.042  -0.125  0.00  0.00    +0.080 S 
ATOM     10  O   UNL     1      -4.519   0.339   0.418  0.00  0.00    -0.147 OA
ATOM     11  O   UNL     1      -3.063  -1.540  -0.179  0.00  0.00    -0.147 OA
BRANCH   9  12
ATOM     12  O   UNL     1      -2.995   0.594  -1.672  0.00  0.00    -0.254 OA
ATOM     13  H   UNL     1      -3.717   0.174  -2.205  0.00  0.00    +0.244 HD
ENDBRANCH   9  12
ENDBRANCH   8   9
ENDBRANCH   1   8
TORSDOF 5
