REMARK  Name = 
REMARK  23 active torsions:
REMARK  status: ('A' for Active; 'I' for Inactive)
REMARK    1  A    between atoms: C_1  and  C_2
REMARK    2  A    between atoms: C_4  and  O_5
REMARK    3  A    between atoms: O_5  and  C_6
REMARK    4  A    between atoms: C_7  and  C_8
REMARK    5  A    between atoms: C_8  and  O_9
REMARK    6  A    between atoms: C_11  and  O_12
REMARK    7  A    between atoms: O_12  and  C_13
REMARK    8  A    between atoms: C_14  and  C_15
REMARK    9  A    between atoms: C_15  and  O_16
REMARK   10  A    between atoms: C_18  and  O_19
REMARK   11  A    between atoms: C_20  and  O_21
REMARK   12  A    between atoms: C_22  and  O_23
REMARK   13  A    between atoms: C_24  and  O_25
REMARK   14  A    between atoms: C_26  and  O_27
REMARK   15  A    between atoms: C_28  and  O_29
REMARK   16  A    between atoms: C_30  and  O_31
REMARK   17  A    between atoms: C_32  and  N_33
REMARK   18  A    between atoms: N_33  and  C_34
REMARK   19  A    between atoms: C_36  and  C_37
REMARK   20  A    between atoms: C_37  and  O_38
REMARK   21  A    between atoms: C_39  and  O_40
REMARK   22  A    between atoms: C_41  and  O_42
REMARK   23  A    between atoms: C_43  and  O_44
REMARK                            x       y       z     vdW  Elec       q    Type
REMARK                         _______ _______ _______ _____ _____    ______ ____
ROOT
ATOM      1  O   UNL     1       0.243   0.091  -1.929  0.00  0.00    -0.340 OA
ENDROOT
BRANCH   1   5
ATOM      2  C   UNL     1      -2.045  -0.741   1.597  0.00  0.00    +0.039 C 
ATOM      3  C   UNL     1      -2.458   0.164   0.421  0.00  0.00    +0.138 C 
ATOM      4  O   UNL     1      -1.344   0.583  -0.352  0.00  0.00    -0.344 OA
ATOM      5  C   UNL     1      -0.682  -0.485  -1.014  0.00  0.00    +0.282 C 
ATOM      6  C   UNL     1      -1.671  -1.413  -1.787  0.00  0.00    +0.200 C 
ATOM      7  C   UNL     1      -3.061  -0.769  -1.886  0.00  0.00    +0.167 C 
ATOM      8  C   UNL     1      -3.586  -0.450  -0.461  0.00  0.00    +0.114 C 
BRANCH   6   9
ATOM      9  O   UNL     1      -1.174  -1.694  -3.071  0.00  0.00    -0.384 OA
ATOM     10  H   UNL     1      -1.628  -2.519  -3.386  0.00  0.00    +0.210 HD
ENDBRANCH   6   9
BRANCH   7  11
ATOM     11  O   UNL     1      -3.940  -1.650  -2.540  0.00  0.00    -0.387 OA
ATOM     12  H   UNL     1      -4.741  -1.122  -2.793  0.00  0.00    +0.210 HD
ENDBRANCH   7  11
BRANCH   8  13
ATOM     13  N   UNL     1      -4.736   0.490  -0.503  0.00  0.00    -0.300 NA
ATOM     14  H   UNL     1      -4.805   0.957  -1.437  0.00  0.00    +0.123 HD
BRANCH  13  15
ATOM     15  C   UNL     1      -6.025  -0.145  -0.159  0.00  0.00    +0.109 C 
ATOM     16  C   UNL     1      -6.115  -0.341   1.343  0.00  0.00    -0.002 C 
ATOM     17  C   UNL     1      -7.278  -0.323   2.031  0.00  0.00    -0.016 C 
ATOM     18  C   UNL     1      -8.597   0.066   1.380  0.00  0.00    +0.173 C 
ATOM     19  C   UNL     1      -8.540   0.113  -0.168  0.00  0.00    +0.177 C 
ATOM     20  C   UNL     1      -7.211   0.701  -0.671  0.00  0.00    +0.166 C 
BRANCH  18  21
ATOM     21  O   UNL     1      -9.609  -0.818   1.792  0.00  0.00    -0.385 OA
ATOM     22  H   UNL     1     -10.474  -0.355   1.630  0.00  0.00    +0.210 HD
ENDBRANCH  18  21
BRANCH  19  23
ATOM     23  O   UNL     1      -8.775  -1.146  -0.749  0.00  0.00    -0.386 OA
ATOM     24  H   UNL     1      -8.277  -1.836  -0.238  0.00  0.00    +0.210 HD
ENDBRANCH  19  23
BRANCH  20  25
ATOM     25  O   UNL     1      -7.087   2.028  -0.219  0.00  0.00    -0.387 OA
ATOM     26  H   UNL     1      -6.805   2.578  -0.994  0.00  0.00    +0.210 HD
ENDBRANCH  20  25
BRANCH  17  27
ATOM     27  C   UNL     1      -7.230  -0.502   3.531  0.00  0.00    +0.189 C 
BRANCH  27  28
ATOM     28  O   UNL     1      -6.806  -1.798   3.847  0.00  0.00    -0.391 OA
ATOM     29  H   UNL     1      -5.816  -1.760   3.957  0.00  0.00    +0.210 HD
ENDBRANCH  27  28
ENDBRANCH  17  27
ENDBRANCH  13  15
ENDBRANCH   8  13
ENDBRANCH   1   5
BRANCH   1  30
ATOM     30  C   UNL     1       1.602  -0.167  -1.591  0.00  0.00    +0.183 C 
ATOM     31  C   UNL     1       2.191   1.001  -0.724  0.00  0.00    +0.178 C 
ATOM     32  O   UNL     1       3.590   1.212  -0.894  0.00  0.00    -0.341 OA
ATOM     33  C   UNL     1       4.284   0.006  -1.156  0.00  0.00    +0.282 C 
ATOM     34  C   UNL     1       3.923  -0.495  -2.573  0.00  0.00    +0.201 C 
ATOM     35  C   UNL     1       2.419  -0.269  -2.887  0.00  0.00    +0.179 C 
BRANCH  34  36
ATOM     36  O   UNL     1       4.727   0.117  -3.554  0.00  0.00    -0.384 OA
ATOM     37  H   UNL     1       4.595   1.099  -3.485  0.00  0.00    +0.210 HD
ENDBRANCH  34  36
BRANCH  35  38
ATOM     38  O   UNL     1       1.923  -1.327  -3.668  0.00  0.00    -0.386 OA
ATOM     39  H   UNL     1       2.309  -1.210  -4.577  0.00  0.00    +0.210 HD
ENDBRANCH  35  38
BRANCH  31  40
ATOM     40  C   UNL     1       1.860   0.892   0.774  0.00  0.00    +0.190 C 
BRANCH  40  41
ATOM     41  O   UNL     1       2.296  -0.330   1.304  0.00  0.00    -0.392 OA
ATOM     42  H   UNL     1       2.021  -0.331   2.263  0.00  0.00    +0.210 HD
ENDBRANCH  40  41
ENDBRANCH  31  40
BRANCH  33  43
ATOM     43  O   UNL     1       5.678   0.226  -1.065  0.00  0.00    -0.340 OA
BRANCH  43  44
ATOM     44  C   UNL     1       6.082   0.426   0.282  0.00  0.00    +0.183 C 
ATOM     45  C   UNL     1       7.089   1.602   0.332  0.00  0.00    +0.178 C 
ATOM     46  O   UNL     1       7.603   1.768   1.645  0.00  0.00    -0.341 OA
ATOM     47  C   UNL     1       8.375   0.646   2.027  0.00  0.00    +0.279 C 
ATOM     48  C   UNL     1       7.466  -0.592   2.147  0.00  0.00    +0.201 C 
ATOM     49  C   UNL     1       6.761  -0.856   0.802  0.00  0.00    +0.179 C 
BRANCH  47  50
ATOM     50  O   UNL     1       8.960   0.920   3.273  0.00  0.00    -0.365 OA
ATOM     51  H   UNL     1       9.685   0.258   3.407  0.00  0.00    +0.213 HD
ENDBRANCH  47  50
BRANCH  48  52
ATOM     52  O   UNL     1       8.193  -1.723   2.557  0.00  0.00    -0.384 OA
ATOM     53  H   UNL     1       8.882  -1.901   1.865  0.00  0.00    +0.210 HD
ENDBRANCH  48  52
BRANCH  49  54
ATOM     54  O   UNL     1       5.838  -1.907   0.925  0.00  0.00    -0.386 OA
ATOM     55  H   UNL     1       5.160  -1.640   1.595  0.00  0.00    +0.210 HD
ENDBRANCH  49  54
BRANCH  45  56
ATOM     56  C   UNL     1       6.413   2.912  -0.088  0.00  0.00    +0.190 C 
BRANCH  56  57
ATOM     57  O   UNL     1       7.342   3.962  -0.028  0.00  0.00    -0.392 OA
ATOM     58  H   UNL     1       6.855   4.777  -0.311  0.00  0.00    +0.210 HD
ENDBRANCH  56  57
ENDBRANCH  45  56
ENDBRANCH  43  44
ENDBRANCH  33  43
ENDBRANCH   1  30
TORSDOF 22
