REMARK  Name = 
REMARK  15 active torsions:
REMARK  status: ('A' for Active; 'I' for Inactive)
REMARK    1  A    between atoms: C_1  and  C_2
REMARK    2  A    between atoms: C_2  and  C_3
REMARK    3  A    between atoms: C_3  and  C_4
REMARK    4  A    between atoms: N_6  and  C_7
REMARK    5  A    between atoms: C_9  and  C_10
REMARK    6  A    between atoms: C_10  and  C_11
REMARK    7  A    between atoms: C_13  and  O_14
REMARK    8  A    between atoms: O_14  and  C_15
REMARK    9  A    between atoms: C_15  and  C_16
REMARK   10  A    between atoms: C_16  and  O_17
REMARK   11  A    between atoms: C_16  and  C_18
REMARK   12  A    between atoms: C_18  and  N_19
REMARK   13  A    between atoms: N_19  and  C_20
REMARK   14  A    between atoms: C_20  and  C_21
REMARK   15  A    between atoms: C_20  and  C_22
REMARK                            x       y       z     vdW  Elec       q    Type
REMARK                         _______ _______ _______ _____ _____    ______ ____
ROOT
ATOM      1  C   UNL     1       2.900  -0.509   0.459  0.00  0.00    +0.034 A 
ATOM      2  C   UNL     1       2.111   0.632   0.647  0.00  0.00    +0.038 A 
ATOM      3  C   UNL     1       0.750   0.647   0.286  0.00  0.00    +0.060 A 
ATOM      4  C   UNL     1       0.163  -0.530  -0.239  0.00  0.00    +0.131 A 
ATOM      5  C   UNL     1       0.960  -1.679  -0.407  0.00  0.00    +0.048 A 
ATOM      6  C   UNL     1       2.310  -1.670  -0.057  0.00  0.00    +0.027 A 
ENDROOT
BRANCH   1   9
ATOM      7  C   UNL     1       5.330  -1.184   0.163  0.00  0.00    +0.217 C 
ATOM      8  O   UNL     1       5.114  -1.718  -0.958  0.00  0.00    -0.275 OA
ATOM      9  N   UNL     1       4.283  -0.482   0.853  0.00  0.00    -0.285 N 
ATOM     10  H   UNL     1       4.558   0.161   1.630  0.00  0.00    +0.155 HD
BRANCH   7  11
ATOM     11  C   UNL     1       6.717  -1.217   0.736  0.00  0.00    +0.096 C 
BRANCH  11  13
ATOM     12  C   UNL     1       7.218   1.261   0.429  0.00  0.00    +0.004 C 
ATOM     13  C   UNL     1       7.628  -0.170   0.082  0.00  0.00    +0.006 C 
ENDBRANCH  11  13
ENDBRANCH   7  11
ENDBRANCH   1   9
BRANCH   3  14
ATOM     14  C   UNL     1      -0.021   1.903   0.490  0.00  0.00    +0.164 C 
ATOM     15  C   UNL     1      -1.193   2.279  -0.363  0.00  0.00    +0.092 C 
ATOM     16  O   UNL     1       0.314   2.689   1.418  0.00  0.00    -0.292 OA
ENDBRANCH   3  14
BRANCH   4  17
ATOM     17  O   UNL     1      -1.205  -0.543  -0.560  0.00  0.00    -0.489 OA
BRANCH  17  18
ATOM     18  C   UNL     1      -1.905  -1.668  -1.091  0.00  0.00    +0.261 C 
BRANCH  18  19
ATOM     19  C   UNL     1      -3.372  -1.305  -1.360  0.00  0.00    +0.166 C 
BRANCH  19  20
ATOM     20  O   UNL     1      -4.019  -2.366  -2.019  0.00  0.00    -0.387 OA
ATOM     21  H   UNL     1      -4.013  -3.148  -1.406  0.00  0.00    +0.210 HD
ENDBRANCH  19  20
BRANCH  19  22
ATOM     22  C   UNL     1      -4.117  -0.933  -0.066  0.00  0.00    +0.115 C 
BRANCH  22  23
ATOM     23  N   UNL     1      -5.547  -0.709  -0.354  0.00  0.00    -0.311 NA
ATOM     24  H   UNL     1      -6.122  -1.315   0.279  0.00  0.00    +0.122 HD
BRANCH  23  25
ATOM     25  C   UNL     1      -6.017   0.685  -0.221  0.00  0.00    +0.048 C 
ATOM     26  C   UNL     1      -5.343   1.615  -1.237  0.00  0.00    +0.023 C 
ATOM     27  C   UNL     1      -5.899   1.223   1.216  0.00  0.00    +0.023 C 
ENDBRANCH  23  25
ENDBRANCH  22  23
ENDBRANCH  19  22
ENDBRANCH  18  19
ENDBRANCH  17  18
ENDBRANCH   4  17
TORSDOF 11
