REMARK  Name = 
REMARK  7 active torsions:
REMARK  status: ('A' for Active; 'I' for Inactive)
REMARK    1  A    between atoms: C_1  and  C_2
REMARK    2  A    between atoms: C_2  and  C_4
REMARK    3  A    between atoms: C_4  and  C_5
REMARK    4  A    between atoms: C_5  and  C_6
REMARK    5  A    between atoms: C_5  and  C_15
REMARK    6  A    between atoms: C_9  and  N_12
REMARK    7  A    between atoms: C_16  and  O_17
REMARK                            x       y       z     vdW  Elec       q    Type
REMARK                         _______ _______ _______ _____ _____    ______ ____
ROOT
ATOM      1  C   UNL     1       0.927   0.998   1.207  0.00  0.00    +0.067 C 
ENDROOT
BRANCH   1   2
ATOM      2  C   UNL     1      -0.541   0.576   1.052  0.00  0.00    +0.087 A 
ATOM      3  C   UNL     1      -1.019  -0.057  -0.121  0.00  0.00    +0.138 A 
ATOM      4  C   UNL     1      -2.390  -0.393  -0.218  0.00  0.00    +0.059 A 
ATOM      5  C   UNL     1      -2.953  -1.048  -1.336  0.00  0.00    +0.015 A 
ATOM      6  C   UNL     1      -4.318  -1.348  -1.368  0.00  0.00    +0.001 A 
ATOM      7  C   UNL     1      -5.140  -1.006  -0.295  0.00  0.00    +0.004 A 
ATOM      8  C   UNL     1      -4.601  -0.362   0.819  0.00  0.00    +0.047 A 
ATOM      9  C   UNL     1      -3.237  -0.055   0.864  0.00  0.00    +0.143 A 
ATOM     10  O   UNL     1      -2.752   0.560   1.934  0.00  0.00    -0.422 OA
ATOM     11  C   UNL     1      -1.474   0.885   2.065  0.00  0.00    +0.345 A 
ATOM     12  O   UNL     1      -1.109   1.482   3.113  0.00  0.00    -0.245 OA
BRANCH   3  13
ATOM     13  O   UNL     1      -0.115  -0.323  -1.156  0.00  0.00    -0.506 OA
ATOM     14  H   UNL     1      -0.356  -0.737  -2.044  0.00  0.00    +0.292 HD
ENDBRANCH   3  13
ENDBRANCH   1   2
BRANCH   1  15
ATOM     15  C   UNL     1       1.918  -0.088   0.775  0.00  0.00    -0.039 A 
ATOM     16  C   UNL     1       3.118   0.195   0.090  0.00  0.00    +0.006 A 
ATOM     17  C   UNL     1       4.012  -0.828  -0.242  0.00  0.00    +0.033 A 
ATOM     18  C   UNL     1       3.750  -2.156   0.129  0.00  0.00    +0.126 A 
ATOM     19  C   UNL     1       2.582  -2.438   0.854  0.00  0.00    +0.033 A 
ATOM     20  C   UNL     1       1.689  -1.417   1.185  0.00  0.00    +0.006 A 
BRANCH  18  21
ATOM     21  N   UNL     1       4.668  -3.211  -0.212  0.00  0.00    +0.056 N 
ATOM     22  O   UNL     1       4.410  -4.511   0.158  0.00  0.00    -0.126 OA
ATOM     23  O   UNL     1       5.711  -2.965  -0.854  0.00  0.00    -0.126 OA
ENDBRANCH  18  21
ENDBRANCH   1  15
BRANCH   1  24
ATOM     24  C   UNL     1       1.137   2.419   0.618  0.00  0.00    +0.087 C 
BRANCH  24  26
ATOM     25  C   UNL     1      -0.506   3.174  -1.283  0.00  0.00    +0.086 C 
ATOM     26  C   UNL     1       0.784   2.541  -0.847  0.00  0.00    +0.131 C 
ATOM     27  O   UNL     1       1.560   2.137  -1.698  0.00  0.00    -0.298 OA
ENDBRANCH  24  26
ENDBRANCH   1  24
TORSDOF 6
