REMARK  Name = 
REMARK  8 active torsions:
REMARK  status: ('A' for Active; 'I' for Inactive)
REMARK    1  A    between atoms: C_1  and  N_2
REMARK    2  A    between atoms: N_2  and  C_3
REMARK    3  A    between atoms: N_2  and  C_4
REMARK    4  A    between atoms: C_4  and  C_5
REMARK    5  A    between atoms: C_5  and  C_6
REMARK    6  A    between atoms: C_6  and  N_7
REMARK    7  A    between atoms: C_18  and  C_21
REMARK    8  A    between atoms: C_21  and  C_22
REMARK                            x       y       z     vdW  Elec       q    Type
REMARK                         _______ _______ _______ _____ _____    ______ ____
ROOT
ATOM      1  N   UNL     1       0.029  -0.016   0.651  0.00  0.00    -0.298 N 
ATOM      2  C   UNL     1       0.214   0.855   1.785  0.00  0.00    +0.048 A 
ATOM      3  C   UNL     1       1.415   0.845   2.514  0.00  0.00    +0.024 A 
ATOM      4  C   UNL     1       1.523   1.577   3.700  0.00  0.00    +0.002 A 
ATOM      5  C   UNL     1       0.430   2.306   4.178  0.00  0.00    +0.001 A 
ATOM      6  C   UNL     1      -0.770   2.319   3.462  0.00  0.00    +0.017 A 
ATOM      7  C   UNL     1      -0.875   1.609   2.261  0.00  0.00    +0.034 A 
ATOM      8  S   UNL     1      -2.365   1.728   1.267  0.00  0.00    -0.086 S 
ATOM      9  C   UNL     1      -2.413  -0.035   0.923  0.00  0.00    +0.034 A 
ATOM     10  C   UNL     1      -1.238  -0.694   0.528  0.00  0.00    +0.049 A 
ATOM     11  C   UNL     1      -1.294  -2.052   0.174  0.00  0.00    +0.036 A 
ATOM     12  C   UNL     1      -2.515  -2.755   0.206  0.00  0.00    +0.019 A 
ATOM     13  C   UNL     1      -3.677  -2.076   0.621  0.00  0.00    +0.012 A 
ATOM     14  C   UNL     1      -3.623  -0.728   0.982  0.00  0.00    +0.017 A 
ENDROOT
BRANCH  12  15
ATOM     15  C   UNL     1      -2.554  -4.194  -0.175  0.00  0.00    +0.160 C 
ATOM     16  C   UNL     1      -3.825  -4.990  -0.133  0.00  0.00    +0.091 C 
ATOM     17  O   UNL     1      -1.498  -4.772  -0.548  0.00  0.00    -0.292 OA
ENDBRANCH  12  15
BRANCH   1  18
ATOM     18  C   UNL     1       0.967   0.023  -0.478  0.00  0.00    +0.112 C 
BRANCH  18  19
ATOM     19  C   UNL     1       0.617   1.190  -1.409  0.00  0.00    +0.035 C 
BRANCH  19  20
ATOM     20  C   UNL     1       1.549   1.258  -2.627  0.00  0.00    +0.085 C 
BRANCH  20  22
ATOM     21  C   UNL     1       3.281   2.804  -1.883  0.00  0.00    +0.104 C 
ATOM     22  N   UNL     1       2.966   1.405  -2.224  0.00  0.00    -0.308 NA
ATOM     23  C   UNL     1       3.850   0.957  -3.313  0.00  0.00    +0.104 C 
ENDBRANCH  20  22
ENDBRANCH  19  20
ENDBRANCH  18  19
ENDBRANCH   1  18
TORSDOF 5
