REMARK  Name = 
REMARK  8 active torsions:
REMARK  status: ('A' for Active; 'I' for Inactive)
REMARK    1  A    between atoms: C_1  and  C_2
REMARK    2  A    between atoms: C_2  and  C_3
REMARK    3  A    between atoms: C_2  and  N_21
REMARK    4  A    between atoms: C_3  and  N_4
REMARK    5  A    between atoms: C_15  and  C_18
REMARK    6  A    between atoms: C_18  and  C_19
REMARK    7  A    between atoms: N_21  and  C_22
REMARK    8  A    between atoms: N_21  and  C_23
REMARK                            x       y       z     vdW  Elec       q    Type
REMARK                         _______ _______ _______ _____ _____    ______ ____
ROOT
ATOM      1  N   UNL     1      -0.234   0.224   0.880  0.00  0.00    -0.297 N 
ATOM      2  C   UNL     1      -0.553   1.531   1.402  0.00  0.00    +0.048 A 
ATOM      3  C   UNL     1      -0.960   1.696   2.737  0.00  0.00    +0.024 A 
ATOM      4  C   UNL     1      -1.110   2.979   3.272  0.00  0.00    +0.002 A 
ATOM      5  C   UNL     1      -0.836   4.104   2.488  0.00  0.00    +0.001 A 
ATOM      6  C   UNL     1      -0.425   3.949   1.162  0.00  0.00    +0.017 A 
ATOM      7  C   UNL     1      -0.296   2.668   0.615  0.00  0.00    +0.034 A 
ATOM      8  S   UNL     1       0.116   2.463  -1.120  0.00  0.00    -0.086 S 
ATOM      9  C   UNL     1       1.300   1.151  -0.801  0.00  0.00    +0.034 A 
ATOM     10  C   UNL     1       0.952   0.101   0.066  0.00  0.00    +0.049 A 
ATOM     11  C   UNL     1       1.830  -0.985   0.221  0.00  0.00    +0.036 A 
ATOM     12  C   UNL     1       3.056  -1.025  -0.472  0.00  0.00    +0.019 A 
ATOM     13  C   UNL     1       3.395   0.053  -1.313  0.00  0.00    +0.012 A 
ATOM     14  C   UNL     1       2.523   1.133  -1.472  0.00  0.00    +0.017 A 
ENDROOT
BRANCH  12  15
ATOM     15  C   UNL     1       3.972  -2.185  -0.296  0.00  0.00    +0.160 C 
ATOM     16  C   UNL     1       5.296  -2.263  -0.996  0.00  0.00    +0.091 C 
ATOM     17  O   UNL     1       3.637  -3.139   0.459  0.00  0.00    -0.292 OA
ENDBRANCH  12  15
BRANCH   1  18
ATOM     18  C   UNL     1      -1.139  -0.917   1.093  0.00  0.00    +0.129 C 
BRANCH  18  20
ATOM     19  C   UNL     1      -2.723  -2.558  -0.017  0.00  0.00    +0.026 C 
ATOM     20  C   UNL     1      -1.677  -1.450  -0.250  0.00  0.00    +0.071 C 
BRANCH  20  21
ATOM     21  N   UNL     1      -2.166  -0.329  -1.100  0.00  0.00    -0.304 NA
ATOM     22  C   UNL     1      -3.486   0.201  -0.715  0.00  0.00    +0.104 C 
ATOM     23  C   UNL     1      -2.139  -0.663  -2.533  0.00  0.00    +0.104 C 
ENDBRANCH  20  21
ENDBRANCH  18  20
ENDBRANCH   1  18
TORSDOF 4
