REMARK  Name = 
REMARK  9 active torsions:
REMARK  status: ('A' for Active; 'I' for Inactive)
REMARK    1  A    between atoms: C_1  and  C_2
REMARK    2  A    between atoms: C_2  and  C_4
REMARK    3  A    between atoms: N_15  and  C_16
REMARK    4  A    between atoms: C_16  and  C_17
REMARK    5  A    between atoms: C_17  and  C_18
REMARK    6  A    between atoms: C_18  and  N_19
REMARK    7  A    between atoms: N_22  and  C_23
REMARK    8  A    between atoms: C_23  and  C_24
REMARK    9  A    between atoms: C_24  and  O_25
REMARK                            x       y       z     vdW  Elec       q    Type
REMARK                         _______ _______ _______ _____ _____    ______ ____
ROOT
ATOM      1  C   UNL     1      -2.948   1.993  -0.646  0.00  0.00    +0.019 A 
ATOM      2  C   UNL     1      -4.284   1.973  -1.088  0.00  0.00    +0.012 A 
ATOM      3  C   UNL     1      -5.059   0.818  -0.955  0.00  0.00    +0.017 A 
ATOM      4  C   UNL     1      -4.511  -0.332  -0.384  0.00  0.00    +0.034 A 
ATOM      5  S   UNL     1      -5.559  -1.750  -0.059  0.00  0.00    -0.086 S 
ATOM      6  C   UNL     1      -4.353  -2.918  -0.680  0.00  0.00    +0.034 A 
ATOM      7  C   UNL     1      -3.010  -2.819  -0.263  0.00  0.00    +0.048 A 
ATOM      8  C   UNL     1      -2.108  -3.832  -0.637  0.00  0.00    +0.024 A 
ATOM      9  C   UNL     1      -2.534  -4.901  -1.432  0.00  0.00    +0.002 A 
ATOM     10  C   UNL     1      -3.856  -4.964  -1.874  0.00  0.00    +0.001 A 
ATOM     11  C   UNL     1      -4.766  -3.974  -1.500  0.00  0.00    +0.017 A 
ATOM     12  N   UNL     1      -2.562  -1.616   0.408  0.00  0.00    -0.298 N 
ATOM     13  C   UNL     1      -3.165  -0.357   0.020  0.00  0.00    +0.049 A 
ATOM     14  C   UNL     1      -2.400   0.818  -0.095  0.00  0.00    +0.036 A 
ENDROOT
BRANCH   1  16
ATOM     15  C   UNL     1      -2.636   4.475  -1.397  0.00  0.00    +0.091 C 
ATOM     16  C   UNL     1      -2.111   3.216  -0.773  0.00  0.00    +0.160 C 
ATOM     17  O   UNL     1      -0.923   3.210  -0.347  0.00  0.00    -0.292 OA
ENDBRANCH   1  16
BRANCH  12  18
ATOM     18  C   UNL     1      -1.525  -1.663   1.454  0.00  0.00    +0.112 C 
BRANCH  18  19
ATOM     19  C   UNL     1      -0.105  -1.536   0.862  0.00  0.00    +0.035 C 
BRANCH  19  20
ATOM     20  C   UNL     1       0.796  -0.627   1.711  0.00  0.00    +0.086 C 
BRANCH  20  21
ATOM     21  N   UNL     1       2.116  -0.465   1.066  0.00  0.00    -0.300 NA
ATOM     22  C   UNL     1       2.094   0.563  -0.009  0.00  0.00    +0.100 C 
ATOM     23  C   UNL     1       2.735   1.889   0.433  0.00  0.00    +0.100 C 
ATOM     24  N   UNL     1       4.152   1.716   0.844  0.00  0.00    -0.298 NA
ATOM     25  C   UNL     1       4.425   0.381   1.437  0.00  0.00    +0.100 C 
ATOM     26  C   UNL     1       3.170  -0.227   2.078  0.00  0.00    +0.100 C 
BRANCH  24  27
ATOM     27  C   UNL     1       5.076   2.018  -0.272  0.00  0.00    +0.112 C 
BRANCH  27  28
ATOM     28  C   UNL     1       6.523   2.160   0.218  0.00  0.00    +0.171 C 
BRANCH  28  29
ATOM     29  O   UNL     1       7.348   2.584  -0.833  0.00  0.00    -0.394 OA
ATOM     30  H   UNL     1       7.215   3.562  -0.924  0.00  0.00    +0.209 HD
ENDBRANCH  28  29
ENDBRANCH  27  28
ENDBRANCH  24  27
ENDBRANCH  20  21
ENDBRANCH  19  20
ENDBRANCH  18  19
ENDBRANCH  12  18
TORSDOF 8
