REMARK  Name = 
REMARK  5 active torsions:
REMARK  status: ('A' for Active; 'I' for Inactive)
REMARK    1  A    between atoms: C_1  and  C_2
REMARK    2  A    between atoms: C_2  and  C_4
REMARK    3  A    between atoms: C_7  and  S_10
REMARK    4  A    between atoms: S_10  and  N_13
REMARK    5  A    between atoms: N_16  and  C_17
REMARK                            x       y       z     vdW  Elec       q    Type
REMARK                         _______ _______ _______ _____ _____    ______ ____
ROOT
ATOM      1  S   UNL     1       1.376   0.146  -1.843  0.00  0.00    +0.076 S 
ATOM      2  O   UNL     1       1.149  -1.115  -2.629  0.00  0.00    -0.150 OA
ATOM      3  O   UNL     1       1.232   1.330  -2.759  0.00  0.00    -0.150 OA
ENDROOT
BRANCH   1   7
ATOM      4  C   UNL     1       5.578   0.098  -0.017  0.00  0.00    +0.017 A 
ATOM      5  C   UNL     1       4.873  -1.103  -0.231  0.00  0.00    +0.013 A 
ATOM      6  C   UNL     1       3.592  -1.086  -0.792  0.00  0.00    +0.029 A 
ATOM      7  C   UNL     1       2.996   0.127  -1.155  0.00  0.00    +0.109 A 
ATOM      8  C   UNL     1       3.684   1.326  -0.939  0.00  0.00    +0.029 A 
ATOM      9  C   UNL     1       4.965   1.313  -0.378  0.00  0.00    +0.013 A 
BRANCH   4  11
ATOM     10  C   UNL     1       7.634  -1.169   0.978  0.00  0.00    +0.091 C 
ATOM     11  C   UNL     1       6.941   0.099   0.579  0.00  0.00    +0.160 C 
ATOM     12  O   UNL     1       7.544   1.192   0.759  0.00  0.00    -0.292 OA
ENDBRANCH   4  11
ENDBRANCH   1   7
BRANCH   1  13
ATOM     13  N   UNL     1       0.215   0.254  -0.562  0.00  0.00    -0.169 N 
ATOM     14  C   UNL     1      -1.192   0.280  -0.820  0.00  0.00    +0.319 C 
ATOM     15  O   UNL     1      -1.616   0.231  -2.006  0.00  0.00    -0.251 OA
ATOM     16  N   UNL     1      -2.114   0.360   0.276  0.00  0.00    -0.295 N 
ATOM     17  H   UNL     1       0.562   0.299   0.422  0.00  0.00    +0.178 HD
ATOM     18  H   UNL     1      -1.728   0.295   1.245  0.00  0.00    +0.151 HD
BRANCH  16  19
ATOM     19  C   UNL     1      -3.567   0.296   0.091  0.00  0.00    +0.074 C 
ATOM     20  C   UNL     1      -4.042  -1.161   0.192  0.00  0.00    +0.022 C 
ATOM     21  C   UNL     1      -5.554  -1.289  -0.085  0.00  0.00    +0.002 C 
ATOM     22  C   UNL     1      -6.356  -0.023   0.279  0.00  0.00    +0.000 C 
ATOM     23  C   UNL     1      -5.722   0.729   1.452  0.00  0.00    +0.002 C 
ATOM     24  C   UNL     1      -4.284   1.191   1.132  0.00  0.00    +0.022 C 
ENDBRANCH  16  19
ENDBRANCH   1  13
TORSDOF 4
