REMARK  Name = 
REMARK  19 active torsions:
REMARK  status: ('A' for Active; 'I' for Inactive)
REMARK    1  A    between atoms: C_1  and  C_52
REMARK    2  A    between atoms: C_4  and  O_5
REMARK    3  A    between atoms: C_11  and  O_21
REMARK    4  A    between atoms: C_14  and  C_15
REMARK    5  A    between atoms: C_19  and  C_20
REMARK    6  A    between atoms: O_21  and  C_22
REMARK    7  A    between atoms: C_24  and  O_25
REMARK    8  A    between atoms: C_26  and  O_27
REMARK    9  A    between atoms: O_27  and  C_28
REMARK   10  A    between atoms: C_30  and  O_31
REMARK   11  A    between atoms: C_32  and  O_33
REMARK   12  A    between atoms: O_33  and  C_34
REMARK   13  A    between atoms: C_36  and  O_37
REMARK   14  A    between atoms: O_37  and  C_38
REMARK   15  A    between atoms: C_38  and  C_39
REMARK   16  A    between atoms: C_41  and  O_42
REMARK   17  A    between atoms: C_43  and  C_44
REMARK   18  A    between atoms: C_46  and  C_47
REMARK   19  A    between atoms: C_49  and  C_50
REMARK                            x       y       z     vdW  Elec       q    Type
REMARK                         _______ _______ _______ _____ _____    ______ ____
ROOT
ATOM      1  C   UNL     1      -0.143   0.845   1.056  0.00  0.00    +0.253 C 
ATOM      2  C   UNL     1       0.246   1.329  -0.358  0.00  0.00    +0.095 C 
ATOM      3  C   UNL     1       1.509   2.209  -0.336  0.00  0.00    +0.151 C 
ATOM      4  C   UNL     1       2.516   1.715   0.715  0.00  0.00    +0.178 C 
ATOM      5  C   UNL     1       1.817   1.580   2.106  0.00  0.00    +0.150 C 
ATOM      6  C   UNL     1       2.349   2.628   3.085  0.00  0.00    +0.041 C 
ATOM      7  O   UNL     1       0.403   1.721   2.027  0.00  0.00    -0.346 OA
ENDROOT
BRANCH   3   8
ATOM      8  O   UNL     1       2.092   2.307  -1.612  0.00  0.00    -0.389 OA
ATOM      9  H   UNL     1       2.347   1.394  -1.903  0.00  0.00    +0.210 HD
ENDBRANCH   3   8
BRANCH   1  10
ATOM     10  O   UNL     1      -1.560   0.870   1.193  0.00  0.00    -0.348 OA
BRANCH  10  20
ATOM     11  C   UNL     1      -9.623  -1.008  -0.237  0.00  0.00    +0.027 C 
ATOM     12  C   UNL     1      -9.747  -1.630  -1.644  0.00  0.00    +0.011 C 
ATOM     13  C   UNL     1      -9.024  -0.694  -2.612  0.00  0.00    +0.036 C 
ATOM     14  C   UNL     1      -8.372   0.422  -1.760  0.00  0.00    +0.075 C 
ATOM     15  C   UNL     1      -6.835   0.140  -1.423  0.00  0.00    +0.025 C 
ATOM     16  C   UNL     1      -6.283  -1.289  -1.706  0.00  0.00    +0.007 C 
ATOM     17  C   UNL     1      -4.911  -1.560  -1.041  0.00  0.00    +0.004 C 
ATOM     18  C   UNL     1      -4.099  -0.256  -0.846  0.00  0.00    -0.002 C 
ATOM     19  C   UNL     1      -2.604  -0.538  -0.517  0.00  0.00    +0.035 C 
ATOM     20  C   UNL     1      -2.184  -0.389   0.961  0.00  0.00    +0.122 C 
ATOM     21  C   UNL     1      -3.389  -0.515   1.887  0.00  0.00    +0.032 C 
ATOM     22  C   UNL     1      -4.407   0.596   1.626  0.00  0.00    +0.010 C 
ATOM     23  C   UNL     1      -4.833   0.765   0.118  0.00  0.00    -0.026 C 
ATOM     24  C   UNL     1      -4.444   2.200  -0.339  0.00  0.00    +0.012 C 
ATOM     25  C   UNL     1      -6.400   0.550   0.006  0.00  0.00    +0.001 C 
ATOM     26  C   UNL     1      -7.254   1.715   0.517  0.00  0.00    +0.005 C 
ATOM     27  C   UNL     1      -8.681   1.216   0.743  0.00  0.00    +0.010 C 
ATOM     28  C   UNL     1      -9.316   0.496  -0.500  0.00  0.00    +0.004 C 
ATOM     29  C   UNL     1     -10.636   1.252  -0.863  0.00  0.00    +0.014 C 
BRANCH  11  30
ATOM     30  C   UNL     1     -10.805  -1.312   0.686  0.00  0.00    -0.022 C 
ATOM     31  C   UNL     1     -11.689  -2.295   0.500  0.00  0.00    +0.094 C 
ATOM     32  C   UNL     1     -12.521  -2.350   1.675  0.00  0.00    +0.332 C 
ATOM     33  O   UNL     1     -13.494  -3.130   1.847  0.00  0.00    -0.246 OA
ATOM     34  O   UNL     1     -12.104  -1.423   2.601  0.00  0.00    -0.457 OA
ATOM     35  C   UNL     1     -10.967  -0.746   2.082  0.00  0.00    +0.264 C 
ENDBRANCH  11  30
BRANCH  14  36
ATOM     36  O   UNL     1      -8.445   1.649  -2.457  0.00  0.00    -0.388 OA
ATOM     37  H   UNL     1      -8.054   1.515  -3.361  0.00  0.00    +0.210 HD
ENDBRANCH  14  36
ENDBRANCH  10  20
ENDBRANCH   1  10
BRANCH   4  38
ATOM     38  O   UNL     1       3.014   0.443   0.322  0.00  0.00    -0.343 OA
BRANCH  38  39
ATOM     39  C   UNL     1       4.408   0.337   0.553  0.00  0.00    +0.254 C 
ATOM     40  C   UNL     1       4.753  -1.150   0.706  0.00  0.00    +0.095 C 
ATOM     41  C   UNL     1       6.269  -1.332   0.871  0.00  0.00    +0.151 C 
ATOM     42  C   UNL     1       7.008  -0.597  -0.267  0.00  0.00    +0.178 C 
ATOM     43  C   UNL     1       6.497   0.862  -0.358  0.00  0.00    +0.150 C 
ATOM     44  C   UNL     1       7.164   1.591  -1.527  0.00  0.00    +0.041 C 
ATOM     45  O   UNL     1       5.094   0.885  -0.563  0.00  0.00    -0.346 OA
BRANCH  41  46
ATOM     46  O   UNL     1       6.687  -0.821   2.113  0.00  0.00    -0.389 OA
ATOM     47  H   UNL     1       6.350  -1.444   2.812  0.00  0.00    +0.210 HD
ENDBRANCH  41  46
BRANCH  42  48
ATOM     48  O   UNL     1       8.408  -0.586  -0.023  0.00  0.00    -0.343 OA
BRANCH  48  49
ATOM     49  C   UNL     1       9.041  -1.800  -0.408  0.00  0.00    +0.255 C 
ATOM     50  C   UNL     1      10.234  -1.492  -1.323  0.00  0.00    +0.108 C 
ATOM     51  C   UNL     1      11.352  -0.804  -0.537  0.00  0.00    +0.212 C 
ATOM     52  C   UNL     1      11.727  -1.676   0.665  0.00  0.00    +0.184 C 
ATOM     53  C   UNL     1      10.475  -2.018   1.505  0.00  0.00    +0.150 C 
ATOM     54  C   UNL     1      10.025  -0.869   2.420  0.00  0.00    +0.041 C 
ATOM     55  O   UNL     1       9.403  -2.562   0.738  0.00  0.00    -0.346 OA
BRANCH  52  56
ATOM     56  O   UNL     1      12.320  -2.876   0.225  0.00  0.00    -0.386 OA
ATOM     57  H   UNL     1      13.295  -2.705   0.140  0.00  0.00    +0.210 HD
ENDBRANCH  52  56
BRANCH  51  58
ATOM     58  O   UNL     1      12.503  -0.606  -1.358  0.00  0.00    -0.459 OA
BRANCH  58  59
ATOM     59  C   UNL     1      12.589   0.382  -2.346  0.00  0.00    +0.304 C 
ATOM     60  C   UNL     1      13.866   0.557  -3.095  0.00  0.00    +0.136 C 
ATOM     61  O   UNL     1      11.612   1.141  -2.588  0.00  0.00    -0.251 OA
ENDBRANCH  58  59
ENDBRANCH  51  58
ENDBRANCH  48  49
ENDBRANCH  42  48
ENDBRANCH  38  39
ENDBRANCH   4  38
TORSDOF 13
