REMARK  Name = 
REMARK  3 active torsions:
REMARK  status: ('A' for Active; 'I' for Inactive)
REMARK    1  A    between atoms: C_1  and  C_2
REMARK    2  A    between atoms: N_4  and  C_5
REMARK    3  A    between atoms: C_8  and  O_9
REMARK                            x       y       z     vdW  Elec       q    Type
REMARK                         _______ _______ _______ _____ _____    ______ ____
ROOT
ATOM      1  C   UNL     1      -0.064   0.175   0.200  0.00  0.00    +0.034 A 
ATOM      2  C   UNL     1      -0.902   1.250   0.532  0.00  0.00    +0.027 A 
ATOM      3  C   UNL     1      -2.280   1.169   0.315  0.00  0.00    +0.047 A 
ATOM      4  C   UNL     1      -2.840   0.003  -0.224  0.00  0.00    +0.117 A 
ATOM      5  C   UNL     1      -2.014  -1.081  -0.537  0.00  0.00    +0.047 A 
ATOM      6  C   UNL     1      -0.635  -1.001  -0.321  0.00  0.00    +0.027 A 
ENDROOT
BRANCH   1  10
ATOM      7  C   UNL     1       3.780  -0.353   0.115  0.00  0.00    +0.109 C 
ATOM      8  C   UNL     1       2.359  -0.355  -0.346  0.00  0.00    +0.214 C 
ATOM      9  O   UNL     1       2.077  -0.840  -1.475  0.00  0.00    -0.276 OA
ATOM     10  N   UNL     1       1.348   0.276   0.455  0.00  0.00    -0.286 N 
ATOM     11  H   UNL     1       1.664   0.914   1.220  0.00  0.00    +0.155 HD
ENDBRANCH   1  10
BRANCH   4  12
ATOM     12  O   UNL     1      -4.212  -0.090  -0.446  0.00  0.00    -0.507 OA
ATOM     13  H   UNL     1      -4.837   0.677  -0.228  0.00  0.00    +0.292 HD
ENDBRANCH   4  12
TORSDOF 2
