REMARK  Name = 
REMARK  3 active torsions:
REMARK  status: ('A' for Active; 'I' for Inactive)
REMARK    1  A    between atoms: C_1  and  C_2
REMARK    2  A    between atoms: C_8  and  S_10
REMARK    3  A    between atoms: S_10  and  N_11
REMARK                            x       y       z     vdW  Elec       q    Type
REMARK                         _______ _______ _______ _____ _____    ______ ____
ROOT
ATOM      1  C   UNL     1      -4.378   0.100  -0.114  0.00  0.00    +0.109 C 
ATOM      2  C   UNL     1      -2.990  -0.416  -0.307  0.00  0.00    +0.216 C 
ATOM      3  O   UNL     1      -2.818  -1.591  -0.728  0.00  0.00    -0.276 OA
ATOM      4  N   UNL     1      -1.869   0.431  -0.010  0.00  0.00    -0.263 N 
ATOM      5  C   UNL     1      -0.501   0.030  -0.162  0.00  0.00    +0.189 A 
ATOM      6  N   UNL     1      -0.108  -1.187  -0.601  0.00  0.00    -0.124 NA
ATOM      7  N   UNL     1       1.216  -1.319  -0.655  0.00  0.00    -0.119 NA
ATOM      8  C   UNL     1       1.876  -0.209  -0.262  0.00  0.00    +0.256 A 
ATOM      9  S   UNL     1       0.816   1.021   0.186  0.00  0.00    -0.011 S 
ATOM     10  H   UNL     1      -2.057   1.398   0.337  0.00  0.00    +0.157 HD
ENDROOT
BRANCH   8  11
ATOM     11  S   UNL     1       3.622  -0.079  -0.220  0.00  0.00    +0.081 S 
ATOM     12  O   UNL     1       4.057   1.103  -1.039  0.00  0.00    -0.151 OA
ATOM     13  O   UNL     1       4.229  -1.327  -0.797  0.00  0.00    -0.151 OA
BRANCH  11  14
ATOM     14  N   UNL     1       4.150   0.109   1.415  0.00  0.00    -0.202 NA
ATOM     15  H   UNL     1       3.755   1.011   1.762  0.00  0.00    +0.144 HD
ATOM     16  H   UNL     1       5.188   0.224   1.389  0.00  0.00    +0.144 HD
ENDBRANCH  11  14
ENDBRANCH   8  11
TORSDOF 2
