REMARK  Name = 
REMARK  2 active torsions:
REMARK  status: ('A' for Active; 'I' for Inactive)
REMARK    1  A    between atoms: C_1  and  C_2
REMARK    2  A    between atoms: N_4  and  O_5
REMARK                            x       y       z     vdW  Elec       q    Type
REMARK                         _______ _______ _______ _____ _____    ______ ____
ROOT
ATOM      1  C   UNL     1      -1.460   0.087   0.008  0.00  0.00    +0.111 C 
ATOM      2  C   UNL     1      -0.076  -0.315  -0.384  0.00  0.00    +0.232 C 
ATOM      3  O   UNL     1       0.109  -0.982  -1.438  0.00  0.00    -0.274 OA
ATOM      4  N   UNL     1       1.034   0.028   0.449  0.00  0.00    -0.198 N 
ATOM      5  H   UNL     1       0.878   0.556   1.337  0.00  0.00    +0.182 HD
ENDROOT
BRANCH   4   6
ATOM      6  O   UNL     1       2.291  -0.351   0.115  0.00  0.00    -0.295 OA
ATOM      7  H   UNL     1       2.652   0.405  -0.414  0.00  0.00    +0.241 HD
ENDBRANCH   4   6
TORSDOF 1
