REMARK  Name = 
REMARK  6 active torsions:
REMARK  status: ('A' for Active; 'I' for Inactive)
REMARK    1  A    between atoms: C_1  and  C_2
REMARK    2  A    between atoms: N_4  and  CA_5
REMARK    3  A    between atoms: CA_5  and  CB_6
REMARK    4  A    between atoms: CA_5  and  C_8
REMARK    5  A    between atoms: CB_6  and  SG_7
REMARK    6  A    between atoms: C_8  and  O_9
REMARK                            x       y       z     vdW  Elec       q    Type
REMARK                         _______ _______ _______ _____ _____    ______ ____
ROOT
ATOM      1  CA  CYS A   1      -0.888  -0.071  -0.240  0.00  0.00    +0.191 C 
ENDROOT
BRANCH   1   5
ATOM      2  C   UNK A   0       3.007  -0.146  -0.359  0.00  0.00    +0.109 C 
ATOM      3  C   UNK A   0       1.587   0.010  -0.797  0.00  0.00    +0.211 C 
ATOM      4  O   UNK A   0       1.335   0.374  -1.978  0.00  0.00    -0.276 OA
ATOM      5  N   CYS A   1       0.521  -0.234   0.131  0.00  0.00    -0.302 N 
ATOM      6  H   CYS A   1       0.770  -0.514   1.107  0.00  0.00    +0.150 HD
ENDBRANCH   1   5
BRANCH   1   7
ATOM      7  C   CYS A   1      -1.224   1.390  -0.318  0.00  0.00    +0.326 C 
ATOM      8  OXT CYS A   1      -1.852   1.841  -1.312  0.00  0.00    -0.249 OA
BRANCH   7   9
ATOM      9  O   CYS A   1      -0.866   2.243   0.723  0.00  0.00    -0.479 OA
ATOM     10  H   CYS A   1      -1.095   3.229   0.688  0.00  0.00    +0.295 HD
ENDBRANCH   7   9
ENDBRANCH   1   7
BRANCH   1  11
ATOM     11  CB  CYS A   1      -1.806  -0.759   0.779  0.00  0.00    +0.099 C 
BRANCH  11  12
ATOM     12  SG  CYS A   1      -1.531  -2.560   0.782  0.00  0.00    -0.176 S 
ATOM     13  HG  CYS A   1      -2.502  -2.772   1.778  0.00  0.00    +0.102 HD
ENDBRANCH  11  12
ENDBRANCH   1  11
TORSDOF 5
