REMARK  Name = 
REMARK  5 active torsions:
REMARK  status: ('A' for Active; 'I' for Inactive)
REMARK    1  A    between atoms: C_1  and  C_2
REMARK    2  A    between atoms: C_2  and  O_4
REMARK    3  A    between atoms: O_4  and  C_5
REMARK    4  A    between atoms: C_10  and  C_11
REMARK    5  A    between atoms: C_11  and  O_12
REMARK                            x       y       z     vdW  Elec       q    Type
REMARK                         _______ _______ _______ _____ _____    ______ ____
ROOT
ATOM      1  C   UNL     1       0.042   0.338   0.059  0.00  0.00    +0.146 A 
ATOM      2  C   UNL     1      -0.578   1.603   0.013  0.00  0.00    +0.047 A 
ATOM      3  C   UNL     1       0.147   2.737  -0.351  0.00  0.00    +0.004 A 
ATOM      4  C   UNL     1       1.500   2.630  -0.664  0.00  0.00    +0.001 A 
ATOM      5  C   UNL     1       2.136   1.389  -0.606  0.00  0.00    +0.018 A 
ATOM      6  C   UNL     1       1.423   0.230  -0.240  0.00  0.00    +0.101 A 
ENDROOT
BRANCH   6   7
ATOM      7  C   UNL     1       2.134  -1.075  -0.189  0.00  0.00    +0.340 C 
ATOM      8  O   UNL     1       3.369  -1.134  -0.436  0.00  0.00    -0.245 OA
BRANCH   7   9
ATOM      9  O   UNL     1       1.456  -2.250   0.129  0.00  0.00    -0.477 OA
ATOM     10  H   UNL     1       1.941  -3.138   0.163  0.00  0.00    +0.295 HD
ENDBRANCH   7   9
ENDBRANCH   6   7
BRANCH   1  11
ATOM     11  O   UNL     1      -0.682  -0.803   0.440  0.00  0.00    -0.425 OA
BRANCH  11  13
ATOM     12  C   UNL     1      -2.738  -2.146   0.881  0.00  0.00    +0.136 C 
ATOM     13  C   UNL     1      -2.044  -1.020   0.194  0.00  0.00    +0.309 C 
ATOM     14  O   UNL     1      -2.664  -0.343  -0.670  0.00  0.00    -0.251 OA
ENDBRANCH  11  13
ENDBRANCH   1  11
TORSDOF 4
