REMARK  Name = 
REMARK  1 active torsions:
REMARK  status: ('A' for Active; 'I' for Inactive)
REMARK    1  A    between atoms: C_1  and  C_2
REMARK                            x       y       z     vdW  Elec       q    Type
REMARK                         _______ _______ _______ _____ _____    ______ ____
ROOT
ATOM      1  C   UNL     1      -0.654  -0.067  -0.118  0.00  0.00    +0.140 C 
ATOM      2  C   UNL     1       0.801   0.115   0.154  0.00  0.00    +0.353 C 
ATOM      3  O   UNL     1       1.682  -0.945  -0.015  0.00  0.00    -0.247 OA
ATOM      4  O   UNL     1       1.235   1.233   0.537  0.00  0.00    -0.247 OA
ENDROOT
TORSDOF 0
