REMARK  Name = 
REMARK  13 active torsions:
REMARK  status: ('A' for Active; 'I' for Inactive)
REMARK    1  A    between atoms: C_1  and  O_2
REMARK    2  A    between atoms: O_2  and  C_3
REMARK    3  A    between atoms: C_4  and  C_5
REMARK    4  A    between atoms: C_6  and  C_7
REMARK    5  A    between atoms: C_8  and  C_9
REMARK    6  A    between atoms: C_10  and  C_11
REMARK    7  A    between atoms: C_11  and  C_12
REMARK    8  A    between atoms: C_13  and  C_14
REMARK    9  A    between atoms: C_15  and  C_16
REMARK   10  A    between atoms: C_16  and  C_17
REMARK   11  A    between atoms: C_18  and  C_19
REMARK   12  A    between atoms: C_19  and  O_20
REMARK   13  A    between atoms: C_22  and  C_23
REMARK                            x       y       z     vdW  Elec       q    Type
REMARK                         _______ _______ _______ _____ _____    ______ ____
ROOT
ATOM      1  C   UNL     1      -1.148   1.036   0.258  0.00  0.00    +0.009 C 
ATOM      2  C   UNL     1      -0.147   0.318  -0.266  0.00  0.00    +0.004 C 
ENDROOT
BRANCH   1   8
ATOM      3  C   UNL     1      -5.260  -0.084  -0.377  0.00  0.00    +0.124 A 
ATOM      4  C   UNL     1      -4.384  -1.002   0.236  0.00  0.00    -0.005 A 
ATOM      5  C   UNL     1      -4.903  -2.369   0.627  0.00  0.00    +0.048 C 
ATOM      6  C   UNL     1      -3.049  -0.618   0.532  0.00  0.00    -0.037 A 
ATOM      7  C   UNL     1      -2.149  -1.549   1.320  0.00  0.00    +0.045 C 
ATOM      8  C   UNL     1      -2.566   0.640   0.077  0.00  0.00    -0.019 A 
ATOM      9  C   UNL     1      -3.450   1.544  -0.551  0.00  0.00    -0.040 A 
ATOM     10  C   UNL     1      -2.983   2.904  -1.009  0.00  0.00    +0.044 C 
ATOM     11  C   UNL     1      -4.786   1.182  -0.754  0.00  0.00    +0.049 A 
BRANCH   3  13
ATOM     12  C   UNL     1      -7.588   0.371  -1.198  0.00  0.00    +0.277 C 
ATOM     13  O   UNL     1      -6.599  -0.456  -0.592  0.00  0.00    -0.495 OA
ENDBRANCH   3  13
ENDBRANCH   1   8
BRANCH   2  14
ATOM     14  C   UNL     1       1.281   0.694  -0.126  0.00  0.00    -0.050 C 
ATOM     15  C   UNL     1       1.679   2.143   0.032  0.00  0.00    +0.044 C 
ATOM     16  C   UNL     1       2.197  -0.294  -0.134  0.00  0.00    +0.003 C 
BRANCH  16  17
ATOM     17  C   UNL     1       3.647  -0.085   0.072  0.00  0.00    +0.001 C 
ATOM     18  C   UNL     1       4.505  -1.107  -0.033  0.00  0.00    +0.003 C 
BRANCH  18  19
ATOM     19  C   UNL     1       5.972  -0.965   0.163  0.00  0.00    -0.044 C 
ATOM     20  C   UNL     1       6.524   0.231   0.906  0.00  0.00    +0.044 C 
ATOM     21  C   UNL     1       6.770  -1.942  -0.316  0.00  0.00    +0.094 C 
BRANCH  21  22
ATOM     22  C   UNL     1       8.245  -1.925  -0.287  0.00  0.00    +0.330 C 
ATOM     23  O   UNL     1       8.864  -2.994  -0.044  0.00  0.00    -0.246 OA
BRANCH  22  24
ATOM     24  O   UNL     1       8.973  -0.778  -0.598  0.00  0.00    -0.478 OA
ATOM     25  H   UNL     1       8.525   0.062  -0.941  0.00  0.00    +0.295 HD
ENDBRANCH  22  24
ENDBRANCH  21  22
ENDBRANCH  18  19
ENDBRANCH  16  17
ENDBRANCH   2  14
TORSDOF 7
