REMARK  Name = 
REMARK  11 active torsions:
REMARK  status: ('A' for Active; 'I' for Inactive)
REMARK    1  A    between atoms: O_2  and  C_3
REMARK    2  A    between atoms: C_3  and  C_4
REMARK    3  A    between atoms: C_3  and  C_25
REMARK    4  A    between atoms: C_3  and  C_30
REMARK    5  A    between atoms: C_4  and  O_6
REMARK    6  A    between atoms: O_6  and  C_7
REMARK    7  A    between atoms: N_9  and  C_10
REMARK    8  A    between atoms: C_10  and  C_11
REMARK    9  A    between atoms: C_11  and  C_12
REMARK   10  A    between atoms: C_12  and  O_13
REMARK   11  A    between atoms: O_13  and  C_14
REMARK                            x       y       z     vdW  Elec       q    Type
REMARK                         _______ _______ _______ _____ _____    ______ ____
ROOT
ATOM      1 BR   UNL     1       2.454  -1.559  -1.423  0.00  0.00    +0.000 Br
ENDROOT
TORSDOF 0
REMARK  Name = 
REMARK  11 active torsions:
REMARK  status: ('A' for Active; 'I' for Inactive)
REMARK    1  A    between atoms: O_2  and  C_3
REMARK    2  A    between atoms: C_3  and  C_4
REMARK    3  A    between atoms: C_3  and  C_25
REMARK    4  A    between atoms: C_3  and  C_30
REMARK    5  A    between atoms: C_4  and  O_6
REMARK    6  A    between atoms: O_6  and  C_7
REMARK    7  A    between atoms: N_9  and  C_10
REMARK    8  A    between atoms: C_10  and  C_11
REMARK    9  A    between atoms: C_11  and  C_12
REMARK   10  A    between atoms: C_12  and  O_13
REMARK   11  A    between atoms: O_13  and  C_14
REMARK                            x       y       z     vdW  Elec       q    Type
REMARK                         _______ _______ _______ _____ _____    ______ ____
ROOT
ATOM      1  C   UNL     1       1.105  -3.668   1.967  0.00  0.00    +0.164 C 
ATOM      2  C   UNL     1       1.593  -4.454   0.774  0.00  0.00    -0.030 C 
ATOM      3  N   UNL     1       1.020  -5.846   0.867  0.00  0.00    +0.383 N 
ATOM      4  C   UNL     1       1.326  -6.517   2.201  0.00  0.00    -0.075 C 
ATOM      5  C   UNL     1       0.824  -5.706   3.369  0.00  0.00    -0.011 C 
ATOM      6  C   UNL     1       0.110  -4.475   2.832  0.00  0.00    +0.025 C 
ATOM      7  C   UNL     1      -1.050  -4.970   1.962  0.00  0.00    -0.011 C 
ATOM      8  C   UNL     1      -0.524  -5.773   0.780  0.00  0.00    -0.075 C 
ENDROOT
BRANCH   1   9
ATOM      9  O   UNL     1       0.486  -2.468   1.492  0.00  0.00    -0.460 OA
BRANCH   9  10
ATOM     10  C   UNL     1       1.030  -1.352   2.054  0.00  0.00    +0.350 C 
ATOM     11  O   UNL     1       1.847  -1.487   2.989  0.00  0.00    -0.247 OA
BRANCH  10  12
ATOM     12  C   UNL     1       0.477   0.023   1.497  0.00  0.00    +0.226 C 
BRANCH  12  13
ATOM     13  C   UNL     1       0.896   1.208   2.377  0.00  0.00    +0.037 A 
ATOM     14  C   UNL     1       0.586   2.526   2.078  0.00  0.00    +0.015 A 
ATOM     15  C   UNL     1       1.067   3.444   3.037  0.00  0.00    +0.008 A 
ATOM     16  C   UNL     1       1.767   2.817   4.037  0.00  0.00    +0.045 A 
ATOM     17  S   UNL     1       1.834   1.138   3.810  0.00  0.00    -0.098 S 
ENDBRANCH  12  13
BRANCH  12  18
ATOM     18  C   UNL     1      -1.056  -0.093   1.514  0.00  0.00    +0.037 A 
ATOM     19  C   UNL     1      -1.873  -0.113   2.630  0.00  0.00    +0.015 A 
ATOM     20  C   UNL     1      -3.253  -0.109   2.299  0.00  0.00    +0.008 A 
ATOM     21  C   UNL     1      -3.463  -0.121   0.940  0.00  0.00    +0.045 A 
ATOM     22  S   UNL     1      -1.997  -0.169   0.069  0.00  0.00    -0.098 S 
ENDBRANCH  12  18
BRANCH  12  23
ATOM     23  O   UNL     1       0.784   0.521   0.215  0.00  0.00    -0.369 OA
ATOM     24  H   UNL     1       1.681   0.226  -0.041  0.00  0.00    +0.212 HD
ENDBRANCH  12  23
ENDBRANCH  10  12
ENDBRANCH   9  10
ENDBRANCH   1   9
BRANCH   3  25
ATOM     25  C   UNL     1       1.541  -6.536  -0.352  0.00  0.00    -0.072 C 
BRANCH  25  26
ATOM     26  C   UNL     1       2.995  -7.014  -0.362  0.00  0.00    +0.023 C 
BRANCH  26  27
ATOM     27  C   UNL     1       3.516  -7.942   0.745  0.00  0.00    +0.227 C 
BRANCH  27  28
ATOM     28  O   UNL     1       2.910  -9.233   1.006  0.00  0.00    -0.492 OA
BRANCH  28  29
ATOM     29  C   UNL     1       1.584  -9.530   0.869  0.00  0.00    +0.120 A 
ATOM     30  C   UNL     1       0.918 -10.171   1.911  0.00  0.00    +0.045 A 
ATOM     31  C   UNL     1      -0.472 -10.389   1.846  0.00  0.00    +0.004 A 
ATOM     32  C   UNL     1      -1.232  -9.778   0.859  0.00  0.00    +0.000 A 
ATOM     33  C   UNL     1      -0.563  -9.213  -0.207  0.00  0.00    +0.004 A 
ATOM     34  C   UNL     1       0.841  -9.308  -0.279  0.00  0.00    +0.045 A 
ENDBRANCH  28  29
ENDBRANCH  27  28
ENDBRANCH  26  27
ENDBRANCH  25  26
ENDBRANCH   3  25
TORSDOF 11
