REMARK  Name = 
REMARK  5 active torsions:
REMARK  status: ('A' for Active; 'I' for Inactive)
REMARK    1  A    between atoms: N_9  and  C_10
REMARK    2  A    between atoms: C_10  and  O_11
REMARK    3  A    between atoms: O_11  and  C_12
REMARK    4  A    between atoms: C_12  and  C_13
REMARK    5  A    between atoms: C_13  and  O_14
REMARK                            x       y       z     vdW  Elec       q    Type
REMARK                         _______ _______ _______ _____ _____    ______ ____
ROOT
ATOM      1  N   UNL     1      -2.450   2.622  -0.741  0.00  0.00    -0.329 N 
ATOM      2  C   UNL     1      -2.421   1.239  -0.391  0.00  0.00    +0.195 A 
ATOM      3  N   UNL     1      -3.581   0.612  -0.006  0.00  0.00    -0.176 NA
ATOM      4  C   UNL     1      -3.595  -0.709   0.340  0.00  0.00    +0.302 A 
ATOM      5  O   UNL     1      -4.665  -1.269   0.696  0.00  0.00    -0.263 OA
ATOM      6  C   UNL     1      -2.396  -1.405   0.289  0.00  0.00    +0.172 A 
ATOM      7  C   UNL     1      -1.265  -0.772  -0.096  0.00  0.00    +0.148 A 
ATOM      8  N   UNL     1      -1.242   0.541  -0.436  0.00  0.00    -0.312 N 
ATOM      9  N   UNL     1      -0.240  -1.633  -0.057  0.00  0.00    -0.292 N 
ATOM     10  C   UNL     1      -0.800  -2.791   0.375  0.00  0.00    +0.203 A 
ATOM     11  N   UNL     1      -2.140  -2.691   0.597  0.00  0.00    -0.229 NA
ATOM     12  H   UNL     1      -1.578   3.115  -1.034  0.00  0.00    +0.145 HD
ATOM     13  H   UNL     1      -3.346   3.156  -0.708  0.00  0.00    +0.145 HD
ATOM     14  H   UNL     1      -0.353   1.007  -0.722  0.00  0.00    +0.170 HD
ENDROOT
BRANCH   9  15
ATOM     15  C   UNL     1       1.169  -1.371  -0.333  0.00  0.00    +0.287 C 
BRANCH  15  16
ATOM     16  O   UNL     1       1.701  -0.577   0.707  0.00  0.00    -0.357 OA
BRANCH  16  17
ATOM     17  C   UNL     1       2.993  -0.110   0.366  0.00  0.00    +0.190 C 
BRANCH  17  18
ATOM     18  C   UNL     1       2.913   1.298  -0.231  0.00  0.00    +0.184 C 
BRANCH  18  19
ATOM     19  O   UNL     1       2.248   2.168   0.644  0.00  0.00    -0.393 OA
ATOM     20  H   UNL     1       2.888   2.382   1.373  0.00  0.00    +0.209 HD
ENDBRANCH  18  19
ENDBRANCH  17  18
ENDBRANCH  16  17
ENDBRANCH  15  16
ENDBRANCH   9  15
TORSDOF 5
