REMARK  Name = 
REMARK  22 active torsions:
REMARK  status: ('A' for Active; 'I' for Inactive)
REMARK    1  A    between atoms: C_1  and  C_2
REMARK    2  A    between atoms: C_2  and  C_3
REMARK    3  A    between atoms: C_2  and  C_4
REMARK    4  A    between atoms: C_2  and  C_5
REMARK    5  A    between atoms: C_5  and  O_7
REMARK    6  A    between atoms: O_7  and  C_8
REMARK    7  A    between atoms: C_8  and  O_9
REMARK    8  A    between atoms: O_9  and  P_10
REMARK    9  A    between atoms: P_10  and  C_12
REMARK   10  A    between atoms: P_10  and  O_26
REMARK   11  A    between atoms: C_12  and  O_13
REMARK   12  A    between atoms: O_13  and  C_14
REMARK   13  A    between atoms: C_14  and  C_15
REMARK   14  A    between atoms: C_15  and  N_16
REMARK   15  A    between atoms: C_20  and  N_21
REMARK   16  A    between atoms: O_26  and  C_27
REMARK   17  A    between atoms: C_27  and  O_28
REMARK   18  A    between atoms: O_28  and  C_29
REMARK   19  A    between atoms: C_29  and  C_31
REMARK   20  A    between atoms: C_31  and  C_32
REMARK   21  A    between atoms: C_31  and  C_33
REMARK   22  A    between atoms: C_31  and  C_34
REMARK                            x       y       z     vdW  Elec       q    Type
REMARK                         _______ _______ _______ _____ _____    ______ ____
ROOT
ATOM      1  P   UNL     1      -0.831   0.190   2.309  0.00  0.00    +0.363 P 
ATOM      2  O   UNL     1      -0.947   0.245   3.814  0.00  0.00    -0.256 OA
ENDROOT
BRANCH   1   3
ATOM      3  O   UNL     1      -1.879   1.394   1.682  0.00  0.00    -0.268 OA
BRANCH   3   4
ATOM      4  C   UNL     1      -1.227   2.142   0.688  0.00  0.00    +0.407 C 
BRANCH   4   5
ATOM      5  O   UNL     1      -2.138   3.108   0.179  0.00  0.00    -0.437 OA
BRANCH   5   6
ATOM      6  C   UNL     1      -1.789   4.019  -0.825  0.00  0.00    +0.314 C 
ATOM      7  O   UNL     1      -0.613   4.028  -1.288  0.00  0.00    -0.250 OA
BRANCH   6   9
ATOM      8  C   UNL     1      -2.913   6.155  -0.244  0.00  0.00    +0.022 C 
ATOM      9  C   UNL     1      -2.810   5.037  -1.296  0.00  0.00    +0.059 C 
ATOM     10  C   UNL     1      -4.182   4.353  -1.457  0.00  0.00    +0.022 C 
ATOM     11  C   UNL     1      -2.396   5.647  -2.652  0.00  0.00    +0.022 C 
ENDBRANCH   6   9
ENDBRANCH   5   6
ENDBRANCH   4   5
ENDBRANCH   3   4
ENDBRANCH   1   3
BRANCH   1  12
ATOM     12  C   UNL     1       0.945   0.394   1.922  0.00  0.00    +0.286 C 
BRANCH  12  13
ATOM     13  O   UNL     1       1.158   0.222   0.538  0.00  0.00    -0.366 OA
BRANCH  13  14
ATOM     14  C   UNL     1       2.538   0.279   0.233  0.00  0.00    +0.182 C 
BRANCH  14  15
ATOM     15  C   UNL     1       3.130  -1.131   0.193  0.00  0.00    +0.153 C 
BRANCH  15  16
ATOM     16  N   UNL     1       4.505  -1.086  -0.297  0.00  0.00    -0.313 N 
ATOM     17  C   UNL     1       4.935  -1.257  -1.574  0.00  0.00    +0.201 A 
ATOM     18  N   UNL     1       6.275  -1.063  -1.722  0.00  0.00    -0.231 NA
ATOM     19  C   UNL     1       6.670  -0.752  -0.472  0.00  0.00    +0.147 A 
ATOM     20  C   UNL     1       7.935  -0.422   0.001  0.00  0.00    +0.147 A 
ATOM     21  N   UNL     1       8.055  -0.113   1.327  0.00  0.00    -0.219 NA
ATOM     22  C   UNL     1       6.968  -0.125   2.165  0.00  0.00    +0.225 A 
ATOM     23  N   UNL     1       5.728  -0.448   1.689  0.00  0.00    -0.216 NA
ATOM     24  C   UNL     1       5.615  -0.759   0.375  0.00  0.00    +0.165 A 
BRANCH  20  25
ATOM     25  N   UNL     1       9.076  -0.398  -0.857  0.00  0.00    -0.341 N 
ATOM     26  H   UNL     1      10.013  -0.141  -0.476  0.00  0.00    +0.144 HD
ATOM     27  H   UNL     1       8.993  -0.643  -1.869  0.00  0.00    +0.144 HD
ENDBRANCH  20  25
ENDBRANCH  15  16
ENDBRANCH  14  15
ENDBRANCH  13  14
ENDBRANCH  12  13
ENDBRANCH   1  12
BRANCH   1  28
ATOM     28  O   UNL     1      -1.337  -1.367   1.820  0.00  0.00    -0.268 OA
BRANCH  28  29
ATOM     29  C   UNL     1      -1.771  -1.317   0.482  0.00  0.00    +0.407 C 
BRANCH  29  30
ATOM     30  O   UNL     1      -2.177  -2.619   0.075  0.00  0.00    -0.437 OA
BRANCH  30  31
ATOM     31  C   UNL     1      -3.290  -3.275   0.615  0.00  0.00    +0.314 C 
ATOM     32  O   UNL     1      -4.015  -2.688   1.467  0.00  0.00    -0.250 OA
BRANCH  31  33
ATOM     33  C   UNL     1      -3.670  -4.660   0.129  0.00  0.00    +0.059 C 
ATOM     34  C   UNL     1      -2.470  -5.334  -0.567  0.00  0.00    +0.022 C 
ATOM     35  C   UNL     1      -4.833  -4.535  -0.871  0.00  0.00    +0.022 C 
ATOM     36  C   UNL     1      -4.107  -5.535   1.321  0.00  0.00    +0.022 C 
ENDBRANCH  31  33
ENDBRANCH  30  31
ENDBRANCH  29  30
ENDBRANCH  28  29
ENDBRANCH   1  28
TORSDOF 16
