REMARK  Name = 
REMARK  1 active torsions:
REMARK  status: ('A' for Active; 'I' for Inactive)
REMARK    1  A    between atoms: N_1  and  C_2
REMARK                            x       y       z     vdW  Elec       q    Type
REMARK                         _______ _______ _______ _____ _____    ______ ____
ROOT
ATOM      1  C   UNL     1      -0.729   0.816   0.259  0.00  0.00    +0.145 A 
ATOM      2  C   UNL     1       0.304  -0.042  -0.109  0.00  0.00    +0.125 A 
ATOM      3  N   UNL     1       1.538   0.223  -0.555  0.00  0.00    -0.340 N 
ATOM      4  C   UNL     1       2.083  -1.005  -0.746  0.00  0.00    +0.199 A 
ATOM      5  N   UNL     1       1.242  -2.030  -0.439  0.00  0.00    -0.216 NA
ATOM      6  C   UNL     1       0.134  -1.382  -0.042  0.00  0.00    +0.183 A 
ATOM      7  N   UNL     1      -1.025  -1.944   0.377  0.00  0.00    -0.214 NA
ATOM      8  C   UNL     1      -2.049  -1.115   0.743  0.00  0.00    +0.225 A 
ATOM      9  N   UNL     1      -1.897   0.247   0.682  0.00  0.00    -0.219 NA
ATOM     10  H   UNL     1       1.988   1.151  -0.721  0.00  0.00    +0.167 HD
ENDROOT
BRANCH   1  11
ATOM     11  N   UNL     1      -0.594   2.237   0.204  0.00  0.00    -0.341 N 
ATOM     12  H   UNL     1      -1.391   2.848   0.489  0.00  0.00    +0.144 HD
ATOM     13  H   UNL     1       0.291   2.687  -0.116  0.00  0.00    +0.144 HD
ENDBRANCH   1  11
TORSDOF 1
