REMARK  Name = 
REMARK  15 active torsions:
REMARK  status: ('A' for Active; 'I' for Inactive)
REMARK    1  A    between atoms: N_1  and  C_2
REMARK    2  A    between atoms: N_6  and  C_7
REMARK    3  A    between atoms: C_9  and  C_10
REMARK    4  A    between atoms: C_10  and  O_11
REMARK    5  A    between atoms: O_11  and  P_12
REMARK    6  A    between atoms: P_12  and  O_13
REMARK    7  A    between atoms: P_12  and  O_15
REMARK    8  A    between atoms: O_15  and  P_16
REMARK    9  A    between atoms: P_16  and  O_17
REMARK   10  A    between atoms: P_16  and  O_19
REMARK   11  A    between atoms: O_19  and  P_20
REMARK   12  A    between atoms: P_20  and  O_21
REMARK   13  A    between atoms: P_20  and  O_22
REMARK   14  A    between atoms: C_24  and  O_25
REMARK   15  A    between atoms: C_26  and  O_27
REMARK                            x       y       z     vdW  Elec       q    Type
REMARK                         _______ _______ _______ _____ _____    ______ ____
ROOT
ATOM      1  C   UNL     1       2.124   1.603   1.970  0.00  0.00    +0.253 C 
ATOM      2  O   UNL     1       0.848   1.128   1.590  0.00  0.00    -0.346 OA
ATOM      3  C   UNL     1       0.379   1.956   0.552  0.00  0.00    +0.178 C 
ATOM      4  C   UNL     1       1.588   2.574  -0.140  0.00  0.00    +0.178 C 
ATOM      5  C   UNL     1       2.588   2.683   0.984  0.00  0.00    +0.195 C 
ENDROOT
BRANCH   1  10
ATOM      6  C   UNL     1       4.608  -2.411   0.757  0.00  0.00    +0.147 A 
ATOM      7  C   UNL     1       4.276  -1.284   1.501  0.00  0.00    +0.147 A 
ATOM      8  N   UNL     1       4.893  -0.753   2.573  0.00  0.00    -0.231 NA
ATOM      9  C   UNL     1       4.130   0.341   2.848  0.00  0.00    +0.203 A 
ATOM     10  N   UNL     1       3.078   0.492   2.002  0.00  0.00    -0.286 N 
ATOM     11  C   UNL     1       3.201  -0.539   1.155  0.00  0.00    +0.167 A 
ATOM     12  N   UNL     1       2.417  -0.840   0.092  0.00  0.00    -0.216 NA
ATOM     13  C   UNL     1       2.731  -1.947  -0.645  0.00  0.00    +0.225 A 
ATOM     14  N   UNL     1       3.815  -2.720  -0.313  0.00  0.00    -0.219 NA
BRANCH   6  15
ATOM     15  N   UNL     1       5.735  -3.223   1.084  0.00  0.00    -0.341 N 
ATOM     16  H   UNL     1       6.346  -2.993   1.899  0.00  0.00    +0.144 HD
ATOM     17  H   UNL     1       5.961  -4.063   0.506  0.00  0.00    +0.144 HD
ENDBRANCH   6  15
ENDBRANCH   1  10
BRANCH   4  18
ATOM     18  O   UNL     1       1.285   3.829  -0.692  0.00  0.00    -0.386 OA
ATOM     19  H   UNL     1       0.810   3.655  -1.545  0.00  0.00    +0.210 HD
ENDBRANCH   4  18
BRANCH   5  20
ATOM     20  O   UNL     1       2.522   3.952   1.587  0.00  0.00    -0.385 OA
ATOM     21  H   UNL     1       3.320   4.027   2.172  0.00  0.00    +0.210 HD
ENDBRANCH   5  20
BRANCH   3  22
ATOM     22  C   UNL     1      -0.482   1.140  -0.417  0.00  0.00    +0.206 C 
BRANCH  22  23
ATOM     23  O   UNL     1      -1.559   0.572   0.290  0.00  0.00    -0.284 OA
BRANCH  23  24
ATOM     24  P   UNL     1      -2.442  -0.425  -0.776  0.00  0.00    +0.483 P 
ATOM     25  O   UNL     1      -2.981   0.413  -1.915  0.00  0.00    -0.227 OA
BRANCH  24  26
ATOM     26  O   UNL     1      -1.426  -1.634  -1.389  0.00  0.00    -0.302 OA
ATOM     27  H   UNL     1      -1.067  -2.091  -0.588  0.00  0.00    +0.222 HD
ENDBRANCH  24  26
BRANCH  24  28
ATOM     28  O   UNL     1      -3.724  -1.123   0.103  0.00  0.00    -0.186 OA
BRANCH  28  29
ATOM     29  P   UNL     1      -4.619  -2.110  -0.960  0.00  0.00    +0.492 P 
ATOM     30  O   UNL     1      -3.733  -3.196  -1.529  0.00  0.00    -0.226 OA
BRANCH  29  31
ATOM     31  O   UNL     1      -5.865  -2.856  -0.089  0.00  0.00    -0.302 OA
ATOM     32  H   UNL     1      -5.415  -3.271   0.689  0.00  0.00    +0.222 HD
ENDBRANCH  29  31
BRANCH  29  33
ATOM     33  O   UNL     1      -5.266  -1.200  -2.247  0.00  0.00    -0.186 OA
BRANCH  33  34
ATOM     34  P   UNL     1      -6.443  -0.149  -1.602  0.00  0.00    +0.481 P 
ATOM     35  O   UNL     1      -5.872   0.674  -0.468  0.00  0.00    -0.227 OA
BRANCH  34  36
ATOM     36  O   UNL     1      -7.777  -1.030  -1.046  0.00  0.00    -0.302 OA
ATOM     37  H   UNL     1      -8.072  -1.559  -1.829  0.00  0.00    +0.222 HD
ENDBRANCH  34  36
BRANCH  34  38
ATOM     38  O   UNL     1      -6.960   0.897  -2.826  0.00  0.00    -0.302 OA
ATOM     39  H   UNL     1      -6.130   1.323  -3.161  0.00  0.00    +0.222 HD
ENDBRANCH  34  38
ENDBRANCH  33  34
ENDBRANCH  29  33
ENDBRANCH  28  29
ENDBRANCH  24  28
ENDBRANCH  23  24
ENDBRANCH  22  23
ENDBRANCH   3  22
TORSDOF 15
