REMARK  Name = 
REMARK  9 active torsions:
REMARK  status: ('A' for Active; 'I' for Inactive)
REMARK    1  A    between atoms: N_1  and  C_2
REMARK    2  A    between atoms: N_6  and  C_7
REMARK    3  A    between atoms: C_9  and  C_10
REMARK    4  A    between atoms: C_10  and  O_11
REMARK    5  A    between atoms: O_11  and  P_12
REMARK    6  A    between atoms: P_12  and  O_13
REMARK    7  A    between atoms: P_12  and  O_14
REMARK    8  A    between atoms: C_16  and  O_17
REMARK    9  A    between atoms: C_18  and  O_19
REMARK                            x       y       z     vdW  Elec       q    Type
REMARK                         _______ _______ _______ _____ _____    ______ ____
ROOT
ATOM      1  C   UNL     1      -0.266   1.110   0.640  0.00  0.00    +0.253 C 
ATOM      2  O   UNL     1       0.912   1.525  -0.018  0.00  0.00    -0.346 OA
ATOM      3  C   UNL     1       2.016   0.921   0.626  0.00  0.00    +0.178 C 
ATOM      4  C   UNL     1       1.521   0.153   1.860  0.00  0.00    +0.178 C 
ATOM      5  C   UNL     1       0.059  -0.064   1.556  0.00  0.00    +0.195 C 
ENDROOT
BRANCH   1  10
ATOM      6  C   UNL     1      -4.588   0.301  -1.435  0.00  0.00    +0.147 A 
ATOM      7  C   UNL     1      -3.202   0.300  -1.324  0.00  0.00    +0.147 A 
ATOM      8  N   UNL     1      -2.276  -0.219  -2.153  0.00  0.00    -0.231 NA
ATOM      9  C   UNL     1      -1.108   0.062  -1.512  0.00  0.00    +0.203 A 
ATOM     10  N   UNL     1      -1.283   0.733  -0.343  0.00  0.00    -0.286 N 
ATOM     11  C   UNL     1      -2.612   0.860  -0.244  0.00  0.00    +0.167 A 
ATOM     12  N   UNL     1      -3.317   1.430   0.763  0.00  0.00    -0.216 NA
ATOM     13  C   UNL     1      -4.681   1.438   0.663  0.00  0.00    +0.225 A 
ATOM     14  N   UNL     1      -5.303   0.880  -0.425  0.00  0.00    -0.219 NA
BRANCH   6  15
ATOM     15  N   UNL     1      -5.253  -0.282  -2.556  0.00  0.00    -0.341 N 
ATOM     16  H   UNL     1      -4.713  -0.727  -3.331  0.00  0.00    +0.144 HD
ATOM     17  H   UNL     1      -6.296  -0.269  -2.611  0.00  0.00    +0.144 HD
ENDBRANCH   6  15
ENDBRANCH   1  10
BRANCH   4  18
ATOM     18  O   UNL     1       1.712   0.903   3.038  0.00  0.00    -0.386 OA
ATOM     19  H   UNL     1       1.272   1.786   2.921  0.00  0.00    +0.210 HD
ENDBRANCH   4  18
BRANCH   5  20
ATOM     20  O   UNL     1      -0.724  -0.050   2.721  0.00  0.00    -0.385 OA
ATOM     21  H   UNL     1      -1.625  -0.371   2.456  0.00  0.00    +0.210 HD
ENDBRANCH   5  20
BRANCH   3  22
ATOM     22  C   UNL     1       2.734   0.003  -0.372  0.00  0.00    +0.206 C 
BRANCH  22  23
ATOM     23  O   UNL     1       3.927  -0.477   0.204  0.00  0.00    -0.284 OA
BRANCH  23  24
ATOM     24  P   UNL     1       4.687  -1.513  -0.917  0.00  0.00    +0.472 P 
ATOM     25  O   UNL     1       5.081  -0.737  -2.155  0.00  0.00    -0.228 OA
BRANCH  24  26
ATOM     26  O   UNL     1       6.079  -2.161  -0.208  0.00  0.00    -0.303 OA
ATOM     27  H   UNL     1       5.750  -2.647   0.590  0.00  0.00    +0.222 HD
ENDBRANCH  24  26
BRANCH  24  28
ATOM     28  O   UNL     1       3.645  -2.776  -1.347  0.00  0.00    -0.303 OA
ATOM     29  H   UNL     1       4.186  -3.362  -1.935  0.00  0.00    +0.222 HD
ENDBRANCH  24  28
ENDBRANCH  23  24
ENDBRANCH  22  23
ENDBRANCH   3  22
TORSDOF 9
