REMARK  Name = 
REMARK  6 active torsions:
REMARK  status: ('A' for Active; 'I' for Inactive)
REMARK    1  A    between atoms: N6_1  and  C6_2
REMARK    2  A    between atoms: N9_6  and  C1*_7
REMARK    3  A    between atoms: C4*_9  and  C5*_10
REMARK    4  A    between atoms: C5*_10  and  O5*_11
REMARK    5  A    between atoms: C3*_12  and  O3*_13
REMARK    6  A    between atoms: C2*_14  and  O2*_15
REMARK                            x       y       z     vdW  Elec       q    Type
REMARK                         _______ _______ _______ _____ _____    ______ ____
ROOT
ATOM      1  C6    A A   1       4.131   0.280   0.127  0.00  0.00    +0.147 A 
ATOM      2  C5    A A   1       2.762   0.503   0.221  0.00  0.00    +0.147 A 
ATOM      3  N7    A A   1       2.067   1.182   1.153  0.00  0.00    -0.231 NA
ATOM      4  C8    A A   1       0.779   1.029   0.737  0.00  0.00    +0.203 A 
ATOM      5  N9    A A   1       0.664   0.301  -0.405  0.00  0.00    -0.286 N 
ATOM      6  C4    A A   1       1.927  -0.029  -0.701  0.00  0.00    +0.167 A 
ATOM      7  N3    A A   1       2.365  -0.792  -1.731  0.00  0.00    -0.216 NA
ATOM      8  C2    A A   1       3.710  -1.016  -1.835  0.00  0.00    +0.225 A 
ATOM      9  N1    A A   1       4.578  -0.484  -0.915  0.00  0.00    -0.219 NA
ENDROOT
BRANCH   5  10
ATOM     10  C1*   A A   1      -0.562  -0.142  -1.073  0.00  0.00    +0.253 C 
ATOM     11  O4*   A A   1      -1.530   0.886  -1.014  0.00  0.00    -0.346 OA
ATOM     12  C4*   A A   1      -2.691   0.355  -0.414  0.00  0.00    +0.177 C 
ATOM     13  C3*   A A   1      -2.300  -0.884   0.380  0.00  0.00    +0.178 C 
ATOM     14  C2*   A A   1      -1.112  -1.405  -0.397  0.00  0.00    +0.195 C 
BRANCH  13  15
ATOM     15  O3*   A A   1      -3.357  -1.807   0.429  0.00  0.00    -0.386 OA
ATOM     16  H3*   A A   1      -3.083  -2.512   1.072  0.00  0.00    +0.210 HD
ENDBRANCH  13  15
BRANCH  14  17
ATOM     17  O2*   A A   1      -1.480  -2.378  -1.348  0.00  0.00    -0.385 OA
ATOM     18  H2*   A A   1      -2.131  -1.969  -1.976  0.00  0.00    +0.210 HD
ENDBRANCH  14  17
BRANCH  12  19
ATOM     19  C5*   A A   1      -3.354   1.415   0.475  0.00  0.00    +0.190 C 
BRANCH  19  20
ATOM     20  O5*   A A   1      -3.726   2.530  -0.289  0.00  0.00    -0.392 OA
ATOM     21  H5*   A A   1      -4.545   2.273  -0.788  0.00  0.00    +0.210 HD
ENDBRANCH  19  20
ENDBRANCH  12  19
ENDBRANCH   5  10
BRANCH   1  22
ATOM     22  N6    A A   1       5.049   0.817   1.079  0.00  0.00    -0.341 N 
ATOM     23  H61   A A   1       4.714   1.400   1.879  0.00  0.00    +0.144 HD
ATOM     24  H62   A A   1       6.072   0.631   0.985  0.00  0.00    +0.144 HD
ENDBRANCH   1  22
TORSDOF 6
