REMARK  Name = 
REMARK  5 active torsions:
REMARK  status: ('A' for Active; 'I' for Inactive)
REMARK    1  A    between atoms: C_1  and  N_2
REMARK    2  A    between atoms: N_2  and  C_3
REMARK    3  A    between atoms: N_2  and  C_4
REMARK    4  A    between atoms: C_4  and  C_5
REMARK    5  A    between atoms: C_11  and  C_12
REMARK                            x       y       z     vdW  Elec       q    Type
REMARK                         _______ _______ _______ _____ _____    ______ ____
ROOT
ATOM      1  C   UNL     1      -2.067   0.964   0.909  0.00  0.00    +0.152 A 
ATOM      2  N   UNL     1      -2.340   1.956   1.782  0.00  0.00    -0.133 NA
ATOM      3  N   UNL     1      -1.327   2.810   1.735  0.00  0.00    -0.132 NA
ATOM      4  C   UNL     1      -0.458   2.328   0.827  0.00  0.00    +0.159 A 
ATOM      5  C   UNL     1       0.892   2.897   0.564  0.00  0.00    +0.218 C 
ATOM      6  N   UNL     1       1.893   1.932   1.002  0.00  0.00    -0.275 NA
ATOM      7  C   UNL     1       2.055   0.727   0.526  0.00  0.00    +0.075 C 
ATOM      8  C   UNL     1       1.228   0.199  -0.609  0.00  0.00    +0.026 A 
ATOM      9  C   UNL     1      -0.180   0.382  -0.687  0.00  0.00    +0.059 A 
ATOM     10  C   UNL     1      -0.882  -0.145  -1.784  0.00  0.00    +0.028 A 
ATOM     11  C   UNL     1      -0.221  -0.873  -2.772  0.00  0.00    +0.022 A 
ATOM     12  C   UNL     1       1.157  -1.067  -2.693  0.00  0.00    +0.042 A 
ATOM     13 CL   UNL     1       1.988  -1.973  -3.945  0.00  0.00    -0.084 Cl
ATOM     14  C   UNL     1       1.877  -0.528  -1.626  0.00  0.00    +0.032 A 
ATOM     15  N   UNL     1      -0.882   1.173   0.291  0.00  0.00    -0.280 N 
ENDROOT
BRANCH   7  16
ATOM     16  C   UNL     1       3.117  -0.121   1.129  0.00  0.00    +0.001 A 
ATOM     17  C   UNL     1       4.285   0.465   1.652  0.00  0.00    +0.010 A 
ATOM     18  C   UNL     1       5.280  -0.331   2.229  0.00  0.00    +0.001 A 
ATOM     19  C   UNL     1       5.117  -1.716   2.298  0.00  0.00    +0.000 A 
ATOM     20  C   UNL     1       3.958  -2.308   1.793  0.00  0.00    +0.001 A 
ATOM     21  C   UNL     1       2.960  -1.518   1.215  0.00  0.00    +0.010 A 
ENDBRANCH   7  16
BRANCH   1  22
ATOM     22  C   UNL     1      -2.940  -0.250   0.752  0.00  0.00    +0.160 C 
BRANCH  22  24
ATOM     23  C   UNL     1      -5.054   0.818   0.188  0.00  0.00    +0.105 C 
ATOM     24  N   UNL     1      -3.957  -0.037  -0.299  0.00  0.00    -0.301 NA
ATOM     25  C   UNL     1      -4.501  -1.330  -0.742  0.00  0.00    +0.105 C 
ENDBRANCH  22  24
ENDBRANCH   1  22
TORSDOF 3
