REMARK  Name = 
REMARK  9 active torsions:
REMARK  status: ('A' for Active; 'I' for Inactive)
REMARK    1  A    between atoms: C_1  and  N_2
REMARK    2  A    between atoms: N_2  and  C_3
REMARK    3  A    between atoms: N_2  and  C_4
REMARK    4  A    between atoms: C_4  and  C_5
REMARK    5  A    between atoms: C_6  and  C_7
REMARK    6  A    between atoms: N_9  and  C_10
REMARK    7  A    between atoms: C_11  and  O_12
REMARK    8  A    between atoms: O_12  and  C_13
REMARK    9  A    between atoms: N_24  and  C_25
REMARK                            x       y       z     vdW  Elec       q    Type
REMARK                         _______ _______ _______ _____ _____    ______ ____
ROOT
ATOM      1  C   UNL     1       0.087   0.597  -1.219  0.00  0.00    +0.077 A 
ATOM      2  C   UNL     1      -0.445   1.688  -1.932  0.00  0.00    +0.144 A 
ATOM      3  C   UNL     1      -1.736   1.592  -2.485  0.00  0.00    +0.076 A 
ATOM      4  C   UNL     1      -2.492   0.428  -2.325  0.00  0.00    +0.080 A 
ATOM      5  N   UNL     1      -3.741   0.360  -2.853  0.00  0.00    -0.235 NA
ATOM      6  C   UNL     1      -4.504  -0.750  -2.703  0.00  0.00    +0.223 A 
ATOM      7  N   UNL     1      -4.023  -1.820  -2.021  0.00  0.00    -0.220 NA
ATOM      8  C   UNL     1      -2.781  -1.814  -1.464  0.00  0.00    +0.134 A 
ATOM      9  N   UNL     1      -2.306  -2.994  -0.793  0.00  0.00    -0.299 N 
ATOM     10  C   UNL     1      -1.968  -0.667  -1.608  0.00  0.00    +0.042 A 
ATOM     11  C   UNL     1      -0.685  -0.565  -1.042  0.00  0.00    +0.040 A 
ATOM     12  H   UNL     1      -1.312  -3.280  -0.941  0.00  0.00    +0.154 HD
ENDROOT
BRANCH   9  13
ATOM     13  C   UNL     1      -3.162  -3.891  -0.064  0.00  0.00    +0.034 A 
ATOM     14  C   UNL     1      -4.353  -3.442   0.539  0.00  0.00    +0.046 A 
ATOM     15  C   UNL     1      -5.160  -4.330   1.260  0.00  0.00    +0.078 A 
ATOM     16 CL   UNL     1      -6.643  -3.752   2.000  0.00  0.00    -0.081 Cl
ATOM     17  C   UNL     1      -4.777  -5.670   1.396  0.00  0.00    +0.142 A 
ATOM     18  F   UNL     1      -5.551  -6.537   2.096  0.00  0.00    -0.204 F 
ATOM     19  C   UNL     1      -3.585  -6.116   0.820  0.00  0.00    +0.041 A 
ATOM     20  C   UNL     1      -2.778  -5.231   0.098  0.00  0.00    +0.026 A 
ENDBRANCH   9  13
BRANCH   1  23
ATOM     21  C   UNL     1       2.309  -0.407  -0.538  0.00  0.00    +0.241 C 
ATOM     22  O   UNL     1       2.163  -1.405  -1.294  0.00  0.00    -0.271 OA
ATOM     23  N   UNL     1       1.395   0.700  -0.627  0.00  0.00    -0.279 N 
ATOM     24  H   UNL     1       1.743   1.648  -0.360  0.00  0.00    +0.155 HD
BRANCH  21  26
ATOM     25  C   UNL     1       3.559   0.469   1.407  0.00  0.00    -0.007 C 
ATOM     26  C   UNL     1       3.460  -0.388   0.385  0.00  0.00    +0.064 C 
BRANCH  25  27
ATOM     27  C   UNL     1       4.728   0.439   2.350  0.00  0.00    +0.111 C 
BRANCH  27  29
ATOM     28  C   UNL     1       5.316   0.373   4.692  0.00  0.00    +0.104 C 
ATOM     29  N   UNL     1       4.292   0.016   3.696  0.00  0.00    -0.305 NA
ATOM     30  C   UNL     1       4.055  -1.438   3.736  0.00  0.00    +0.104 C 
ENDBRANCH  27  29
ENDBRANCH  25  27
ENDBRANCH  21  26
ENDBRANCH   1  23
BRANCH   2  31
ATOM     31  O   UNL     1       0.342   2.845  -2.075  0.00  0.00    -0.485 OA
BRANCH  31  32
ATOM     32  C   UNL     1      -0.068   4.058  -2.712  0.00  0.00    +0.201 C 
ATOM     33  C   UNL     1      -1.013   4.832  -1.837  0.00  0.00    +0.075 C 
ATOM     34  C   UNL     1      -0.085   5.706  -1.017  0.00  0.00    +0.163 C 
ATOM     35  O   UNL     1       1.154   5.829  -1.679  0.00  0.00    -0.376 OA
ATOM     36  C   UNL     1       1.116   4.999  -2.817  0.00  0.00    +0.204 C 
ENDBRANCH  31  32
ENDBRANCH   2  31
TORSDOF 7
