REMARK  Name = 
REMARK  6 active torsions:
REMARK  status: ('A' for Active; 'I' for Inactive)
REMARK    1  A    between atoms: C_1  and  O_2
REMARK    2  A    between atoms: O_2  and  C_3
REMARK    3  A    between atoms: C_10  and  C_11
REMARK    4  A    between atoms: C_11  and  C_12
REMARK    5  A    between atoms: C_12  and  N_13
REMARK    6  A    between atoms: C_14  and  C_15
REMARK                            x       y       z     vdW  Elec       q    Type
REMARK                         _______ _______ _______ _____ _____    ______ ____
ROOT
ATOM      1  C   UNL     1      -3.064   0.673   0.016  0.00  0.00    +0.121 A 
ATOM      2  C   UNL     1      -1.713   0.332   0.224  0.00  0.00    +0.054 A 
ATOM      3  C   UNL     1      -1.276  -1.006   0.107  0.00  0.00    -0.011 A 
ATOM      4  C   UNL     1      -2.229  -2.004  -0.235  0.00  0.00    -0.017 A 
ATOM      5  C   UNL     1      -1.830  -3.339  -0.380  0.00  0.00    +0.008 A 
ATOM      6  C   UNL     1      -0.497  -3.697  -0.196  0.00  0.00    +0.001 A 
ATOM      7  C   UNL     1       0.450  -2.733   0.142  0.00  0.00    +0.004 A 
ATOM      8  C   UNL     1       0.081  -1.386   0.314  0.00  0.00    -0.038 A 
ATOM      9  C   UNL     1      -3.572  -1.654  -0.436  0.00  0.00    +0.012 A 
ATOM     10  C   UNL     1      -3.982  -0.328  -0.309  0.00  0.00    +0.046 A 
ENDROOT
BRANCH   1  12
ATOM     11  C   UNL     1      -2.720   3.115   0.441  0.00  0.00    +0.277 C 
ATOM     12  O   UNL     1      -3.533   1.991   0.122  0.00  0.00    -0.495 OA
ENDBRANCH   1  12
BRANCH   8  13
ATOM     13  C   UNL     1       1.169  -0.396   0.673  0.00  0.00    +0.054 C 
BRANCH  13  14
ATOM     14  C   UNL     1       1.691   0.321  -0.577  0.00  0.00    +0.109 C 
BRANCH  14  15
ATOM     15  N   UNL     1       2.698   1.315  -0.214  0.00  0.00    -0.315 N 
ATOM     16  C   UNL     1       4.035   0.958   0.163  0.00  0.00    +0.210 C 
ATOM     17  C   UNL     1       5.015   2.024   0.531  0.00  0.00    +0.109 C 
ATOM     18  O   UNL     1       4.404  -0.247   0.148  0.00  0.00    -0.276 OA
ATOM     19  H   UNL     1       2.446   2.327  -0.282  0.00  0.00    +0.149 HD
ENDBRANCH  14  15
ENDBRANCH  13  14
ENDBRANCH   8  13
TORSDOF 4
