REMARK  Name = 
REMARK  5 active torsions:
REMARK  status: ('A' for Active; 'I' for Inactive)
REMARK    1  A    between atoms: C_1  and  C_2
REMARK    2  A    between atoms: C_2  and  C_3
REMARK    3  A    between atoms: N_8  and  C_9
REMARK    4  A    between atoms: C_20  and  O_21
REMARK    5  A    between atoms: C_23  and  O_24
REMARK                            x       y       z     vdW  Elec       q    Type
REMARK                         _______ _______ _______ _____ _____    ______ ____
ROOT
ATOM      1  C   UNL     1       3.100   0.357   0.118  0.00  0.00    +0.036 C 
ATOM      2  C   UNL     1       1.951   1.392  -0.073  0.00  0.00    +0.004 C 
ATOM      3  C   UNL     1       1.230   1.423   1.292  0.00  0.00    +0.025 C 
ATOM      4  C   UNL     1       0.379   0.116   1.408  0.00  0.00    +0.081 C 
ATOM      5  C   UNL     1      -1.100   0.499   1.018  0.00  0.00    +0.103 C 
ATOM      6  N   UNL     1      -2.205  -0.306   1.548  0.00  0.00    -0.327 N 
ATOM      7  C   UNL     1      -2.431  -0.589   2.963  0.00  0.00    +0.129 C 
ATOM      8  C   UNL     1      -3.266  -0.104   0.604  0.00  0.00    +0.034 A 
ATOM      9  C   UNL     1      -4.618  -0.412   0.785  0.00  0.00    +0.023 A 
ATOM     10  C   UNL     1      -5.515  -0.130  -0.258  0.00  0.00    +0.002 A 
ATOM     11  C   UNL     1      -5.053   0.435  -1.462  0.00  0.00    +0.000 A 
ATOM     12  C   UNL     1      -3.691   0.728  -1.634  0.00  0.00    +0.006 A 
ATOM     13  C   UNL     1      -2.821   0.484  -0.569  0.00  0.00    -0.016 A 
ATOM     14  C   UNL     1      -1.328   0.503  -0.519  0.00  0.00    +0.045 C 
ATOM     15  C   UNL     1      -0.807  -0.790  -1.118  0.00  0.00    +0.035 C 
ATOM     16  C   UNL     1       0.665  -0.616  -0.915  0.00  0.00    +0.066 C 
ATOM     17  C   UNL     1       0.962   0.892  -1.192  0.00  0.00    +0.039 C 
ATOM     18  C   UNL     1      -0.447   1.580  -1.184  0.00  0.00    +0.132 C 
ATOM     19  N   UNL     1       0.971  -0.940   0.503  0.00  0.00    -0.269 NA
ATOM     20  C   UNL     1       2.457  -0.993   0.621  0.00  0.00    +0.189 C 
ENDROOT
BRANCH   1  22
ATOM     21  C   UNL     1       5.289  -0.503  -0.874  0.00  0.00    +0.004 C 
ATOM     22  C   UNL     1       3.954   0.186  -1.161  0.00  0.00    +0.004 C 
ENDBRANCH   1  22
BRANCH  18  23
ATOM     23  O   UNL     1      -0.877   1.816  -2.499  0.00  0.00    -0.391 OA
ATOM     24  H   UNL     1      -0.372   2.607  -2.823  0.00  0.00    +0.210 HD
ENDBRANCH  18  23
BRANCH  20  25
ATOM     25  O   UNL     1       2.814  -1.242   1.957  0.00  0.00    -0.377 OA
ATOM     26  H   UNL     1       3.776  -1.488   1.954  0.00  0.00    +0.211 HD
ENDBRANCH  20  25
TORSDOF 3
