REMARK  Name = 
REMARK  6 active torsions:
REMARK  status: ('A' for Active; 'I' for Inactive)
REMARK    1  A    between atoms: C_1  and  C_2
REMARK    2  A    between atoms: C_2  and  C_3
REMARK    3  A    between atoms: C_3  and  S_4
REMARK    4  A    between atoms: S_4  and  C_5
REMARK    5  A    between atoms: C_14  and  O_16
REMARK    6  A    between atoms: O_16  and  C_17
REMARK                            x       y       z     vdW  Elec       q    Type
REMARK                         _______ _______ _______ _____ _____    ______ ____
ROOT
ATOM      1  C   UNL     1      -1.753  -0.020  -1.074  0.00  0.00    +0.010 A 
ATOM      2  C   UNL     1      -0.792  -1.017  -0.812  0.00  0.00    +0.042 A 
ATOM      3  C   UNL     1       0.514  -0.603  -0.563  0.00  0.00    +0.068 A 
ATOM      4  C   UNL     1       0.875   0.712  -0.570  0.00  0.00    +0.091 A 
ATOM      5  C   UNL     1      -0.046   1.723  -0.829  0.00  0.00    +0.031 A 
ATOM      6  C   UNL     1      -1.378   1.346  -1.086  0.00  0.00    +0.017 A 
ATOM      7  N   UNL     1       2.186   0.842  -0.302  0.00  0.00    -0.214 NA
ATOM      8  C   UNL     1       2.584  -0.449  -0.136  0.00  0.00    +0.203 A 
ATOM      9  N   UNL     1       3.931  -0.833   0.173  0.00  0.00    -0.221 N 
ATOM     10  C   UNL     1       5.013   0.093   0.343  0.00  0.00    +0.406 C 
ATOM     11  O   UNL     1       4.822   1.335   0.224  0.00  0.00    -0.226 OA
ATOM     12  N   UNL     1       1.587  -1.355  -0.289  0.00  0.00    -0.326 N 
ATOM     13  H   UNL     1       4.139  -1.851   0.281  0.00  0.00    +0.161 HD
ATOM     14  H   UNL     1       1.642  -2.395  -0.211  0.00  0.00    +0.169 HD
ENDROOT
BRANCH  10  15
ATOM     15  O   UNL     1       6.286  -0.399   0.643  0.00  0.00    -0.453 OA
ATOM     16  C   UNL     1       7.412   0.451   0.827  0.00  0.00    +0.282 C 
ENDBRANCH  10  15
BRANCH   1  17
ATOM     17  S   UNL     1      -3.453  -0.483  -1.404  0.00  0.00    -0.125 S 
BRANCH  17  18
ATOM     18  C   UNL     1      -3.944  -0.402   0.354  0.00  0.00    +0.074 C 
BRANCH  18  20
ATOM     19  C   UNL     1      -6.333   0.373  -0.020  0.00  0.00    +0.004 C 
ATOM     20  C   UNL     1      -5.429  -0.732   0.526  0.00  0.00    +0.008 C 
ENDBRANCH  18  20
ENDBRANCH  17  18
ENDBRANCH   1  17
TORSDOF 4
