REMARK  Name = 
REMARK  2 active torsions:
REMARK  status: ('A' for Active; 'I' for Inactive)
REMARK    1  A    between atoms: C_1  and  N_2
REMARK    2  A    between atoms: C_12  and  C_13
REMARK                            x       y       z     vdW  Elec       q    Type
REMARK                         _______ _______ _______ _____ _____    ______ ____
ROOT
ATOM      1  C   UNL     1       5.333  -0.015  -0.616  0.00  0.00    +0.104 C 
ATOM      2  N   UNL     1       3.898  -0.033  -0.298  0.00  0.00    -0.305 NA
ATOM      3  C   UNL     1       3.274   1.271  -0.626  0.00  0.00    +0.088 C 
ATOM      4  C   UNL     1       1.754   1.196  -0.908  0.00  0.00    +0.047 C 
ATOM      5  C   UNL     1       1.086  -0.021  -0.286  0.00  0.00    -0.056 C 
ATOM      6  C   UNL     1       1.840  -1.335  -0.373  0.00  0.00    +0.047 C 
ATOM      7  C   UNL     1       3.229  -1.150  -0.981  0.00  0.00    +0.088 C 
ATOM      8  C   UNL     1      -0.211   0.008   0.132  0.00  0.00    +0.024 C 
ATOM      9  C   UNL     1      -0.935  -1.221   0.543  0.00  0.00    +0.142 A 
ATOM     10  N   UNL     1      -0.421  -2.082   1.449  0.00  0.00    -0.235 NA
ATOM     11  C   UNL     1      -1.374  -3.013   1.619  0.00  0.00    +0.142 A 
ATOM     12  C   UNL     1      -2.457  -2.704   0.831  0.00  0.00    +0.101 A 
ATOM     13  N   UNL     1      -2.189  -1.572   0.137  0.00  0.00    -0.321 N 
ATOM     14  C   UNL     1      -3.107  -0.917  -0.818  0.00  0.00    +0.128 C 
ATOM     15  C   UNL     1      -2.482   0.224  -1.629  0.00  0.00    +0.057 C 
ATOM     16  C   UNL     1      -2.113   1.371  -0.728  0.00  0.00    -0.038 A 
ATOM     17  C   UNL     1      -2.904   2.531  -0.686  0.00  0.00    +0.004 A 
ATOM     18  C   UNL     1      -2.592   3.564   0.202  0.00  0.00    +0.000 A 
ATOM     19  C   UNL     1      -1.502   3.439   1.066  0.00  0.00    +0.001 A 
ATOM     20  C   UNL     1      -0.718   2.283   1.041  0.00  0.00    +0.009 A 
ATOM     21  C   UNL     1      -1.007   1.253   0.130  0.00  0.00    -0.011 A 
ENDROOT
BRANCH  12  22
ATOM     22  C   UNL     1      -3.703  -3.492   0.799  0.00  0.00    +0.278 C 
ATOM     23  O   UNL     1      -4.702  -3.126   0.126  0.00  0.00    -0.294 OA
ENDBRANCH  12  22
TORSDOF 1
