REMARK  Name = 
REMARK  8 active torsions:
REMARK  status: ('A' for Active; 'I' for Inactive)
REMARK    1  A    between atoms: C_3  and  C_4
REMARK    2  A    between atoms: C_5  and  O_6
REMARK    3  A    between atoms: C_5  and  C_7
REMARK    4  A    between atoms: C_7  and  C_9
REMARK    5  A    between atoms: C_9  and  O_10
REMARK    6  A    between atoms: C_11  and  C_12
REMARK    7  A    between atoms: C_14  and  O_15
REMARK    8  A    between atoms: C_27  and  C_28
REMARK                            x       y       z     vdW  Elec       q    Type
REMARK                         _______ _______ _______ _____ _____    ______ ____
ROOT
ATOM      1  C   UNL     1       0.671  -0.057   0.739  0.00  0.00    +0.003 C 
ATOM      2  C   UNL     1       1.405   0.533   1.938  0.00  0.00    +0.011 C 
ATOM      3  C   UNL     1       2.825   0.854   1.408  0.00  0.00    +0.026 C 
ATOM      4  C   UNL     1       3.903   0.107   2.206  0.00  0.00    +0.011 C 
ATOM      5  C   UNL     1       2.811   0.534  -0.140  0.00  0.00    +0.134 C 
ATOM      6  C   UNL     1       1.288   0.634  -0.487  0.00  0.00    +0.009 C 
ATOM      7  C   UNL     1       0.868   2.137  -0.618  0.00  0.00    +0.015 C 
ATOM      8  C   UNL     1       0.836  -0.158  -1.748  0.00  0.00    +0.041 C 
ATOM      9  C   UNL     1      -0.705  -0.300  -1.862  0.00  0.00    +0.120 C 
ATOM     10  C   UNL     1      -1.388  -0.802  -0.536  0.00  0.00    +0.036 C 
ATOM     11  C   UNL     1      -0.874  -0.051   0.746  0.00  0.00    +0.017 C 
ATOM     12  C   UNL     1      -1.442  -0.681   2.050  0.00  0.00    +0.088 C 
ATOM     13 CL   UNL     1      -0.809  -2.330   2.369  0.00  0.00    -0.121 Cl
ATOM     14  C   UNL     1      -2.970  -0.726   2.015  0.00  0.00    +0.051 C 
ATOM     15  C   UNL     1      -3.430  -1.459   0.779  0.00  0.00    -0.055 C 
ATOM     16  C   UNL     1      -4.212  -2.542   0.902  0.00  0.00    +0.051 C 
ATOM     17  C   UNL     1      -4.591  -3.332  -0.268  0.00  0.00    +0.179 C 
ATOM     18  O   UNL     1      -5.266  -4.386  -0.128  0.00  0.00    -0.288 OA
ATOM     19  C   UNL     1      -4.132  -2.922  -1.593  0.00  0.00    +0.047 C 
ATOM     20  C   UNL     1      -3.366  -1.841  -1.739  0.00  0.00    -0.012 C 
ATOM     21  C   UNL     1      -2.964  -0.921  -0.586  0.00  0.00    +0.013 C 
ATOM     22  C   UNL     1      -3.679   0.434  -0.821  0.00  0.00    +0.020 C 
ENDROOT
BRANCH   5  23
ATOM     23  O   UNL     1       3.235  -0.795  -0.376  0.00  0.00    -0.380 OA
ATOM     24  H   UNL     1       4.197  -0.869  -0.144  0.00  0.00    +0.211 HD
ENDBRANCH   5  23
BRANCH   5  25
ATOM     25  C   UNL     1       3.673   1.467  -1.007  0.00  0.00    +0.190 C 
ATOM     26  O   UNL     1       3.745   1.237  -2.207  0.00  0.00    -0.292 OA
BRANCH  25  27
ATOM     27  C   UNL     1       4.432   2.651  -0.448  0.00  0.00    +0.233 C 
BRANCH  27  28
ATOM     28  O   UNL     1       5.141   3.312  -1.458  0.00  0.00    -0.387 OA
ATOM     29  H   UNL     1       5.968   2.785  -1.615  0.00  0.00    +0.210 HD
ENDBRANCH  27  28
ENDBRANCH  25  27
ENDBRANCH   5  25
BRANCH   9  30
ATOM     30  O   UNL     1      -1.253   0.917  -2.296  0.00  0.00    -0.391 OA
ATOM     31  H   UNL     1      -1.686   0.760  -3.180  0.00  0.00    +0.210 HD
ENDBRANCH   9  30
TORSDOF 5
