REMARK  Name = 
REMARK  11 active torsions:
REMARK  status: ('A' for Active; 'I' for Inactive)
REMARK    1  A    between atoms: N_1  and  C_2
REMARK    2  A    between atoms: C_2  and  C_3
REMARK    3  A    between atoms: C_3  and  C_4
REMARK    4  A    between atoms: C_4  and  C_5
REMARK    5  A    between atoms: C_5  and  O_6
REMARK    6  A    between atoms: C_5  and  P_7
REMARK    7  A    between atoms: C_5  and  P_11
REMARK    8  A    between atoms: P_7  and  O_8
REMARK    9  A    between atoms: P_7  and  O_9
REMARK   10  A    between atoms: P_11  and  O_12
REMARK   11  A    between atoms: P_11  and  O_13
REMARK                            x       y       z     vdW  Elec       q    Type
REMARK                         _______ _______ _______ _____ _____    ______ ____
ROOT
ATOM      1  C   UNL     1      -0.840  -0.137   0.500  0.00  0.00    +0.267 C 
ENDROOT
BRANCH   1   2
ATOM      2  O   UNL     1      -0.578  -0.216   1.879  0.00  0.00    -0.367 OA
ATOM      3  H   UNL     1      -1.428  -0.034   2.358  0.00  0.00    +0.212 HD
ENDBRANCH   1   2
BRANCH   1   4
ATOM      4  P   UNL     1      -2.065  -1.428   0.047  0.00  0.00    +0.371 P 
ATOM      5  O   UNL     1      -1.499  -2.797   0.350  0.00  0.00    -0.255 OA
BRANCH   4   6
ATOM      6  O   UNL     1      -2.438  -1.324  -1.602  0.00  0.00    -0.322 OA
ATOM      7  H   UNL     1      -1.655  -1.712  -2.068  0.00  0.00    +0.220 HD
ENDBRANCH   4   6
BRANCH   4   8
ATOM      8  O   UNL     1      -3.482  -1.211   0.948  0.00  0.00    -0.322 OA
ATOM      9  H   UNL     1      -4.118  -1.876   0.582  0.00  0.00    +0.220 HD
ENDBRANCH   4   8
ENDBRANCH   1   4
BRANCH   1  10
ATOM     10  P   UNL     1      -1.531   1.518   0.085  0.00  0.00    +0.371 P 
ATOM     11  O   UNL     1      -2.941   1.638   0.618  0.00  0.00    -0.255 OA
BRANCH  10  12
ATOM     12  O   UNL     1      -0.586   2.742   0.774  0.00  0.00    -0.322 OA
ATOM     13  H   UNL     1      -0.634   2.583   1.750  0.00  0.00    +0.220 HD
ENDBRANCH  10  12
BRANCH  10  14
ATOM     14  O   UNL     1      -1.557   1.714  -1.596  0.00  0.00    -0.322 OA
ATOM     15  H   UNL     1      -1.854   2.648  -1.737  0.00  0.00    +0.220 HD
ENDBRANCH  10  14
ENDBRANCH   1  10
BRANCH   1  16
ATOM     16  C   UNL     1       0.470  -0.406  -0.279  0.00  0.00    +0.061 C 
BRANCH  16  17
ATOM     17  C   UNL     1       1.631   0.536   0.097  0.00  0.00    +0.019 C 
BRANCH  17  18
ATOM     18  C   UNL     1       2.948   0.109  -0.563  0.00  0.00    +0.078 C 
BRANCH  18  19
ATOM     19  N   UNL     1       3.414  -1.164  -0.019  0.00  0.00    -0.330 NA
ATOM     20  H   UNL     1       4.274  -1.439  -0.547  0.00  0.00    +0.118 HD
ATOM     21  H   UNL     1       3.711  -1.008   0.972  0.00  0.00    +0.118 HD
ENDBRANCH  18  19
ENDBRANCH  17  18
ENDBRANCH  16  17
ENDBRANCH   1  16
TORSDOF 11
