REMARK  Name = 
REMARK  12 active torsions:
REMARK  status: ('A' for Active; 'I' for Inactive)
REMARK    1  A    between atoms: C_1  and  C_2
REMARK    2  A    between atoms: C_2  and  C_3
REMARK    3  A    between atoms: C_2  and  C_4
REMARK    4  A    between atoms: C_4  and  C_5
REMARK    5  A    between atoms: C_5  and  C_6
REMARK    6  A    between atoms: C_6  and  C_7
REMARK    7  A    between atoms: C_7  and  C_8
REMARK    8  A    between atoms: C_7  and  C_9
REMARK    9  A    between atoms: C_17  and  C_18
REMARK   10  A    between atoms: C_19  and  C_20
REMARK   11  A    between atoms: C_23  and  O_24
REMARK   12  A    between atoms: C_26  and  O_27
REMARK                            x       y       z     vdW  Elec       q    Type
REMARK                         _______ _______ _______ _____ _____    ______ ____
ROOT
ATOM      1  C   UNL     1       1.750  -1.527   0.038  0.00  0.00    -0.002 C 
ATOM      2  C   UNL     1       1.439  -0.647   1.279  0.00  0.00    +0.005 C 
ATOM      3  C   UNL     1      -0.084  -0.478   1.352  0.00  0.00    +0.009 C 
ATOM      4  C   UNL     1      -0.619  -1.450   0.307  0.00  0.00    +0.021 C 
ATOM      5  C   UNL     1      -2.006  -1.259  -0.272  0.00  0.00    -0.066 C 
ATOM      6  C   UNL     1      -2.333  -2.108  -1.490  0.00  0.00    +0.031 C 
ATOM      7  C   UNL     1      -1.270  -3.200  -1.747  0.00  0.00    +0.005 C 
ATOM      8  C   UNL     1       0.192  -2.679  -1.751  0.00  0.00    +0.008 C 
ATOM      9  C   UNL     1       0.442  -1.453  -0.811  0.00  0.00    -0.022 C 
ATOM     10  C   UNL     1       0.387  -0.132  -1.646  0.00  0.00    +0.012 C 
ATOM     11  C   UNL     1      -2.913  -0.434   0.289  0.00  0.00    -0.000 C 
ENDROOT
BRANCH  11  12
ATOM     12  C   UNL     1      -4.246  -0.175  -0.304  0.00  0.00    +0.004 C 
ATOM     13  C   UNL     1      -5.251   0.455   0.338  0.00  0.00    -0.040 C 
ATOM     14  C   UNL     1      -6.492   0.847  -0.427  0.00  0.00    +0.067 C 
ATOM     15  C   UNL     1      -6.913   2.285  -0.076  0.00  0.00    +0.122 C 
ATOM     16  C   UNL     1      -7.102   2.455   1.446  0.00  0.00    +0.067 C 
ATOM     17  C   UNL     1      -5.836   2.089   2.249  0.00  0.00    +0.147 C 
ATOM     18  C   UNL     1      -5.244   0.766   1.792  0.00  0.00    -0.023 C 
ATOM     19  C   UNL     1      -4.777  -0.122   2.676  0.00  0.00    +0.015 C 
BRANCH  15  20
ATOM     20  O   UNL     1      -8.090   2.634  -0.761  0.00  0.00    -0.391 OA
ATOM     21  H   UNL     1      -8.810   2.020  -0.459  0.00  0.00    +0.210 HD
ENDBRANCH  15  20
BRANCH  17  22
ATOM     22  O   UNL     1      -4.878   3.115   2.174  0.00  0.00    -0.387 OA
ATOM     23  H   UNL     1      -4.502   3.120   1.256  0.00  0.00    +0.210 HD
ENDBRANCH  17  22
ENDBRANCH  11  12
BRANCH   1  24
ATOM     24  C   UNL     1       3.097  -1.129  -0.656  0.00  0.00    -0.010 C 
ATOM     25  C   UNL     1       3.385  -1.998  -1.894  0.00  0.00    +0.008 C 
BRANCH  24  26
ATOM     26  C   UNL     1       4.303  -1.238   0.333  0.00  0.00    +0.003 C 
BRANCH  26  27
ATOM     27  C   UNL     1       5.117   0.061   0.447  0.00  0.00    +0.001 C 
BRANCH  27  28
ATOM     28  C   UNL     1       5.907   0.372  -0.840  0.00  0.00    +0.003 C 
BRANCH  28  30
ATOM     29  C   UNL     1       6.086   2.889  -0.393  0.00  0.00    +0.007 C 
ATOM     30  C   UNL     1       6.843   1.599  -0.738  0.00  0.00    -0.017 C 
ATOM     31  C   UNL     1       8.008   1.370   0.236  0.00  0.00    +0.007 C 
ENDBRANCH  28  30
ENDBRANCH  27  28
ENDBRANCH  26  27
ENDBRANCH  24  26
ENDBRANCH   1  24
TORSDOF 8
