REMARK  Name = 
REMARK  12 active torsions:
REMARK  status: ('A' for Active; 'I' for Inactive)
REMARK    1  A    between atoms: C_1  and  C_2
REMARK    2  A    between atoms: C_2  and  N_3
REMARK    3  A    between atoms: N_6  and  C_7
REMARK    4  A    between atoms: C_7  and  C_8
REMARK    5  A    between atoms: C_8  and  N_9
REMARK    6  A    between atoms: C_12  and  C_13
REMARK    7  A    between atoms: C_12  and  N_18
REMARK    8  A    between atoms: C_13  and  O_14
REMARK    9  A    between atoms: O_14  and  C_15
REMARK   10  A    between atoms: N_18  and  C_23
REMARK   11  A    between atoms: C_19  and  C_21
REMARK   12  A    between atoms: C_21  and  C_22
REMARK                            x       y       z     vdW  Elec       q    Type
REMARK                         _______ _______ _______ _____ _____    ______ ____
ROOT
ATOM      1  N   UNL     1       0.906   1.441   0.185  0.00  0.00    -0.300 NA
ATOM      2  C   UNL     1       0.616   0.760  -1.106  0.00  0.00    +0.086 C 
ATOM      3  C   UNL     1      -0.880   0.458  -1.288  0.00  0.00    +0.044 C 
ATOM      4  C   UNL     1      -1.414  -0.522  -0.181  0.00  0.00    +0.068 C 
ATOM      5  C   UNL     1      -0.688  -0.230   1.172  0.00  0.00    +0.044 C 
ATOM      6  C   UNL     1      -0.113   1.194   1.237  0.00  0.00    +0.086 C 
ENDROOT
BRANCH   4   7
ATOM      7  N   UNL     1      -2.893  -0.390   0.004  0.00  0.00    -0.263 N 
ATOM      8  C   UNL     1      -3.667  -1.427   0.649  0.00  0.00    +0.220 C 
ATOM      9  O   UNL     1      -3.197  -2.046   1.642  0.00  0.00    -0.275 OA
BRANCH   7  10
ATOM     10  C   UNL     1      -3.571   0.863  -0.196  0.00  0.00    +0.037 A 
ATOM     11  C   UNL     1      -4.050   1.210  -1.468  0.00  0.00    +0.023 A 
ATOM     12  C   UNL     1      -4.727   2.419  -1.656  0.00  0.00    +0.002 A 
ATOM     13  C   UNL     1      -4.937   3.280  -0.574  0.00  0.00    +0.000 A 
ATOM     14  C   UNL     1      -4.474   2.930   0.698  0.00  0.00    +0.002 A 
ATOM     15  C   UNL     1      -3.797   1.722   0.889  0.00  0.00    +0.023 A 
ENDBRANCH   7  10
BRANCH   8  16
ATOM     16  C   UNL     1      -5.067  -1.737   0.191  0.00  0.00    +0.093 C 
ATOM     17  C   UNL     1      -5.287  -3.241   0.049  0.00  0.00    +0.013 C 
ENDBRANCH   8  16
ENDBRANCH   4   7
BRANCH   1  18
ATOM     18  C   UNL     1       2.272   1.139   0.667  0.00  0.00    +0.108 C 
BRANCH  18  19
ATOM     19  C   UNL     1       3.334   1.768  -0.242  0.00  0.00    +0.166 C 
BRANCH  19  23
ATOM     20  N   UNL     1       6.582   0.636   0.879  0.00  0.00    -0.194 N 
ATOM     21  N   UNL     1       6.447   1.795   1.510  0.00  0.00    -0.043 NA
ATOM     22  N   UNL     1       5.280   2.338   1.176  0.00  0.00    -0.043 NA
ATOM     23  N   UNL     1       4.665   1.543   0.311  0.00  0.00    -0.192 N 
ATOM     24  C   UNL     1       5.475   0.487   0.135  0.00  0.00    +0.364 A 
ATOM     25  O   UNL     1       5.234  -0.495  -0.617  0.00  0.00    -0.243 OA
BRANCH  20  27
ATOM     26  C   UNL     1       8.750   0.172  -0.155  0.00  0.00    +0.029 C 
ATOM     27  C   UNL     1       7.762  -0.220   0.936  0.00  0.00    +0.147 C 
ENDBRANCH  20  27
ENDBRANCH  19  23
ENDBRANCH  18  19
ENDBRANCH   1  18
BRANCH   4  28
ATOM     28  C   UNL     1      -1.086  -1.977  -0.635  0.00  0.00    +0.185 C 
BRANCH  28  29
ATOM     29  O   UNL     1      -1.887  -2.326  -1.750  0.00  0.00    -0.381 OA
ATOM     30  C   UNL     1      -1.661  -3.675  -2.088  0.00  0.00    +0.194 C 
ENDBRANCH  28  29
ENDBRANCH   4  28
TORSDOF 9
