REMARK  Name = 
REMARK  10 active torsions:
REMARK  status: ('A' for Active; 'I' for Inactive)
REMARK    1  A    between atoms: C_1  and  O_2
REMARK    2  A    between atoms: O_2  and  C_3
REMARK    3  A    between atoms: C_4  and  O_5
REMARK    4  A    between atoms: O_5  and  C_6
REMARK    5  A    between atoms: N_16  and  C_17
REMARK    6  A    between atoms: N_16  and  C_18
REMARK    7  A    between atoms: C_18  and  C_19
REMARK    8  A    between atoms: C_19  and  C_20
REMARK    9  A    between atoms: C_20  and  N_21
REMARK   10  A    between atoms: C_22  and  C_24
REMARK                            x       y       z     vdW  Elec       q    Type
REMARK                         _______ _______ _______ _____ _____    ______ ____
ROOT
ATOM      1  C   UNL     1       5.389  -0.168   0.052  0.00  0.00    +0.164 A 
ATOM      2  C   UNL     1       4.950  -0.793   1.228  0.00  0.00    +0.162 A 
ATOM      3  C   UNL     1       3.627  -0.598   1.675  0.00  0.00    +0.062 A 
ATOM      4  C   UNL     1       2.738   0.225   0.954  0.00  0.00    +0.044 A 
ATOM      5  C   UNL     1       1.399   0.468   1.347  0.00  0.00    +0.129 A 
ATOM      6  N   UNL     1       0.823  -0.086   2.537  0.00  0.00    -0.343 N 
ATOM      7  N   UNL     1       0.616   1.262   0.571  0.00  0.00    -0.199 NA
ATOM      8  C   UNL     1       1.072   1.840  -0.572  0.00  0.00    +0.220 A 
ATOM      9  N   UNL     1       2.356   1.625  -0.959  0.00  0.00    -0.214 NA
ATOM     10  C   UNL     1       3.193   0.841  -0.234  0.00  0.00    +0.082 A 
ATOM     11  C   UNL     1       4.504   0.646  -0.675  0.00  0.00    +0.078 A 
ATOM     12  N   UNL     1       0.203   2.673  -1.366  0.00  0.00    -0.303 N 
ATOM     13  C   UNL     1       0.723   3.310  -2.580  0.00  0.00    +0.132 C 
ATOM     14  H   UNL     1      -0.186   0.085   2.742  0.00  0.00    +0.144 HD
ATOM     15  H   UNL     1       1.363  -0.619   3.249  0.00  0.00    +0.144 HD
ENDROOT
BRANCH   1  17
ATOM     16  C   UNL     1       7.294   0.175  -1.535  0.00  0.00    +0.277 C 
ATOM     17  O   UNL     1       6.713  -0.383  -0.361  0.00  0.00    -0.491 OA
ENDBRANCH   1  17
BRANCH   2  18
ATOM     18  O   UNL     1       5.860  -1.605   1.925  0.00  0.00    -0.491 OA
ATOM     19  C   UNL     1       5.567  -2.304   3.130  0.00  0.00    +0.277 C 
ENDBRANCH   2  18
BRANCH  12  20
ATOM     20  C   UNL     1      -1.196   2.886  -0.968  0.00  0.00    +0.109 C 
BRANCH  20  21
ATOM     21  C   UNL     1      -2.050   1.673  -1.351  0.00  0.00    +0.038 C 
BRANCH  21  22
ATOM     22  C   UNL     1      -3.507   1.866  -0.924  0.00  0.00    +0.106 C 
BRANCH  22  23
ATOM     23  N   UNL     1      -4.305   0.697  -1.288  0.00  0.00    -0.313 N 
ATOM     24  C   UNL     1      -4.232  -0.541  -0.567  0.00  0.00    +0.242 C 
ATOM     25  O   UNL     1      -3.497  -0.639   0.454  0.00  0.00    -0.273 OA
ATOM     26  H   UNL     1      -5.000   0.792  -2.063  0.00  0.00    +0.149 HD
BRANCH  24  27
ATOM     27  C   UNL     1      -5.083  -1.708  -0.988  0.00  0.00    +0.204 C 
ATOM     28  C   UNL     1      -6.429  -1.691  -0.272  0.00  0.00    +0.043 C 
ATOM     29  C   UNL     1      -6.272  -2.745   0.780  0.00  0.00    +0.031 C 
ATOM     30  C   UNL     1      -5.222  -3.657   0.187  0.00  0.00    +0.161 C 
ATOM     31  O   UNL     1      -4.412  -2.916  -0.696  0.00  0.00    -0.367 OA
ENDBRANCH  24  27
ENDBRANCH  22  23
ENDBRANCH  21  22
ENDBRANCH  20  21
ENDBRANCH  12  20
TORSDOF 7
