REMARK  Name = 
REMARK  29 active torsions:
REMARK  status: ('A' for Active; 'I' for Inactive)
REMARK    1  A    between atoms: C_1  and  O_2
REMARK    2  A    between atoms: O_2  and  C_3
REMARK    3  A    between atoms: C_3  and  C_4
REMARK    4  A    between atoms: C_4  and  C_5
REMARK    5  A    between atoms: C_5  and  O_6
REMARK    6  A    between atoms: O_6  and  C_7
REMARK    7  A    between atoms: C_8  and  O_9
REMARK    8  A    between atoms: O_9  and  C_10
REMARK    9  A    between atoms: C_13  and  C_14
REMARK   10  A    between atoms: C_14  and  C_15
REMARK   11  A    between atoms: C_15  and  C_16
REMARK   12  A    between atoms: C_15  and  C_36
REMARK   13  A    between atoms: C_16  and  C_17
REMARK   14  A    between atoms: C_17  and  N_18
REMARK   15  A    between atoms: C_17  and  C_19
REMARK   16  A    between atoms: C_19  and  O_20
REMARK   17  A    between atoms: C_19  and  C_21
REMARK   18  A    between atoms: C_21  and  C_22
REMARK   19  A    between atoms: C_22  and  C_23
REMARK   20  A    between atoms: C_22  and  C_26
REMARK   21  A    between atoms: C_23  and  C_24
REMARK   22  A    between atoms: C_23  and  C_25
REMARK   23  A    between atoms: N_28  and  C_29
REMARK   24  A    between atoms: C_29  and  C_30
REMARK   25  A    between atoms: C_30  and  C_31
REMARK   26  A    between atoms: C_30  and  C_32
REMARK   27  A    between atoms: C_30  and  C_33
REMARK   28  A    between atoms: C_36  and  C_37
REMARK   29  A    between atoms: C_36  and  C_38
REMARK                            x       y       z     vdW  Elec       q    Type
REMARK                         _______ _______ _______ _____ _____    ______ ____
ROOT
ATOM      1  C   UNL     1       1.176  -0.435  -1.505  0.00  0.00    +0.080 C 
ENDROOT
BRANCH   1   2
ATOM      2  N   UNL     1       0.572  -1.141  -2.640  0.00  0.00    -0.325 NA
ATOM      3  H   UNL     1       1.297  -1.744  -3.091  0.00  0.00    +0.119 HD
ATOM      4  H   UNL     1       0.302  -0.438  -3.366  0.00  0.00    +0.119 HD
ENDBRANCH   1   2
BRANCH   1   5
ATOM      5  C   UNL     1       0.214   0.665  -0.964  0.00  0.00    +0.025 C 
BRANCH   5   6
ATOM      6  C   UNL     1      -1.045   0.192  -0.166  0.00  0.00    -0.003 C 
BRANCH   6   7
ATOM      7  C   UNL     1      -1.668   1.351   0.690  0.00  0.00    -0.014 C 
ATOM      8  C   UNL     1      -0.797   1.713   1.905  0.00  0.00    +0.007 C 
ATOM      9  C   UNL     1      -1.993   2.616  -0.124  0.00  0.00    +0.007 C 
ENDBRANCH   6   7
BRANCH   6  10
ATOM     10  C   UNL     1      -2.094  -0.461  -1.106  0.00  0.00    +0.039 C 
BRANCH  10  15
ATOM     11  C   UNL     1      -5.609  -0.933   0.336  0.00  0.00    +0.162 A 
ATOM     12  C   UNL     1      -5.460  -2.146   1.027  0.00  0.00    +0.162 A 
ATOM     13  C   UNL     1      -4.213  -2.797   1.029  0.00  0.00    +0.049 A 
ATOM     14  C   UNL     1      -3.128  -2.246   0.344  0.00  0.00    +0.007 A 
ATOM     15  C   UNL     1      -3.271  -1.044  -0.362  0.00  0.00    -0.043 A 
ATOM     16  C   UNL     1      -4.512  -0.389  -0.361  0.00  0.00    +0.053 A 
BRANCH  12  17
ATOM     17  O   UNL     1      -6.574  -2.671   1.700  0.00  0.00    -0.491 OA
ATOM     18  C   UNL     1      -6.579  -3.905   2.412  0.00  0.00    +0.277 C 
ENDBRANCH  12  17
BRANCH  11  19
ATOM     19  O   UNL     1      -6.861  -0.300   0.366  0.00  0.00    -0.488 OA
BRANCH  19  20
ATOM     20  C   UNL     1      -7.156   0.941  -0.267  0.00  0.00    +0.231 C 
BRANCH  20  21
ATOM     21  C   UNL     1      -8.613   1.311   0.003  0.00  0.00    +0.069 C 
BRANCH  21  22
ATOM     22  C   UNL     1      -8.983   2.639  -0.663  0.00  0.00    +0.163 C 
BRANCH  22  24
ATOM     23  C   UNL     1     -11.205   2.589  -1.335  0.00  0.00    +0.193 C 
ATOM     24  O   UNL     1     -10.309   3.003  -0.328  0.00  0.00    -0.383 OA
ENDBRANCH  22  24
ENDBRANCH  21  22
ENDBRANCH  20  21
ENDBRANCH  19  20
ENDBRANCH  11  19
ENDBRANCH  10  15
ENDBRANCH   6  10
ENDBRANCH   5   6
ENDBRANCH   1   5
BRANCH   1  25
ATOM     25  C   UNL     1       1.661  -1.456  -0.436  0.00  0.00    +0.132 C 
BRANCH  25  26
ATOM     26  O   UNL     1       2.617  -2.310  -1.014  0.00  0.00    -0.390 OA
ATOM     27  H   UNL     1       2.678  -3.114  -0.435  0.00  0.00    +0.210 HD
ENDBRANCH  25  26
BRANCH  25  28
ATOM     28  C   UNL     1       2.240  -0.816   0.858  0.00  0.00    +0.046 C 
BRANCH  28  29
ATOM     29  C   UNL     1       3.489   0.084   0.651  0.00  0.00    +0.080 C 
BRANCH  29  30
ATOM     30  C   UNL     1       4.692  -0.722   0.209  0.00  0.00    +0.216 C 
ATOM     31  O   UNL     1       5.001  -1.781   0.823  0.00  0.00    -0.276 OA
ATOM     32  N   UNL     1       5.480  -0.281  -0.906  0.00  0.00    -0.314 N 
ATOM     33  H   UNL     1       5.253   0.635  -1.356  0.00  0.00    +0.149 HD
BRANCH  32  34
ATOM     34  C   UNL     1       6.547  -1.091  -1.500  0.00  0.00    +0.119 C 
BRANCH  34  35
ATOM     35  C   UNL     1       7.958  -0.643  -1.030  0.00  0.00    +0.057 C 
ATOM     36  C   UNL     1       8.084  -0.837   0.500  0.00  0.00    +0.022 C 
ATOM     37  C   UNL     1       8.194   0.848  -1.353  0.00  0.00    +0.022 C 
BRANCH  35  38
ATOM     38  C   UNL     1       9.010  -1.484  -1.753  0.00  0.00    +0.218 C 
ATOM     39  N   UNL     1       9.157  -1.440  -3.176  0.00  0.00    -0.329 N 
ATOM     40  O   UNL     1       9.769  -2.253  -1.103  0.00  0.00    -0.275 OA
ATOM     41  H   UNL     1       8.548  -0.864  -3.801  0.00  0.00    +0.145 HD
ATOM     42  H   UNL     1       8.540  -0.836  -3.756  0.00  0.00    +0.145 HD
ENDBRANCH  35  38
ENDBRANCH  34  35
ENDBRANCH  32  34
ENDBRANCH  29  30
BRANCH  29  43
ATOM     43  C   UNL     1       3.790   0.961   1.904  0.00  0.00    -0.005 C 
ATOM     44  C   UNL     1       4.252   0.155   3.130  0.00  0.00    +0.008 C 
ATOM     45  C   UNL     1       4.810   2.064   1.583  0.00  0.00    +0.008 C 
ENDBRANCH  29  43
ENDBRANCH  28  29
ENDBRANCH  25  28
ENDBRANCH   1  25
TORSDOF 21
