REMARK  Name = 
REMARK  11 active torsions:
REMARK  status: ('A' for Active; 'I' for Inactive)
REMARK    1  A    between atoms: C_1  and  C_2
REMARK    2  A    between atoms: C_2  and  C_3
REMARK    3  A    between atoms: C_4  and  C_5
REMARK    4  A    between atoms: C_6  and  C_7
REMARK    5  A    between atoms: C_11  and  C_12
REMARK    6  A    between atoms: C_11  and  C_13
REMARK    7  A    between atoms: C_14  and  C_15
REMARK    8  A    between atoms: C_16  and  C_17
REMARK    9  A    between atoms: C_17  and  C_18
REMARK   10  A    between atoms: C_19  and  C_20
REMARK   11  A    between atoms: C_20  and  O_21
REMARK                            x       y       z     vdW  Elec       q    Type
REMARK                         _______ _______ _______ _____ _____    ______ ____
ROOT
ATOM      1  C   UNL     1       0.100   0.450  -3.723  0.00  0.00    +0.044 C 
ATOM      2  C   UNL     1       0.534  -0.036  -2.363  0.00  0.00    -0.050 C 
ATOM      3  C   UNL     1       1.697  -0.709  -2.257  0.00  0.00    +0.003 C 
ENDROOT
BRANCH   2   4
ATOM      4  C   UNL     1      -0.312   0.255  -1.178  0.00  0.00    +0.003 C 
ATOM      5  C   UNL     1      -1.076   1.349  -1.092  0.00  0.00    +0.004 C 
BRANCH   5   6
ATOM      6  C   UNL     1      -1.946   1.589   0.085  0.00  0.00    -0.043 C 
ATOM      7  C   UNL     1      -1.396   1.972   1.272  0.00  0.00    -0.069 C 
ATOM      8  C   UNL     1       0.100   2.110   1.434  0.00  0.00    +0.039 C 
ATOM      9  C   UNL     1      -2.236   2.188   2.513  0.00  0.00    +0.031 C 
ATOM     10  C   UNL     1      -3.692   2.520   2.204  0.00  0.00    +0.005 C 
ATOM     11  C   UNL     1      -4.246   1.518   1.198  0.00  0.00    +0.011 C 
ATOM     12  C   UNL     1      -3.465   1.557  -0.142  0.00  0.00    -0.010 C 
ATOM     13  C   UNL     1      -3.880   2.804  -0.956  0.00  0.00    +0.016 C 
ATOM     14  C   UNL     1      -3.854   0.295  -0.946  0.00  0.00    +0.016 C 
ENDBRANCH   5   6
ENDBRANCH   2   4
BRANCH   3  15
ATOM     15  C   UNL     1       2.289  -1.153  -0.977  0.00  0.00    +0.001 C 
ATOM     16  C   UNL     1       3.397  -1.904  -0.961  0.00  0.00    +0.003 C 
BRANCH  16  17
ATOM     17  C   UNL     1       4.056  -2.350   0.294  0.00  0.00    -0.044 C 
ATOM     18  C   UNL     1       3.239  -2.543   1.551  0.00  0.00    +0.044 C 
ATOM     19  C   UNL     1       5.385  -2.583   0.257  0.00  0.00    +0.094 C 
BRANCH  19  20
ATOM     20  C   UNL     1       6.241  -2.948   1.406  0.00  0.00    +0.330 C 
ATOM     21  O   UNL     1       5.846  -2.818   2.596  0.00  0.00    -0.246 OA
BRANCH  20  22
ATOM     22  O   UNL     1       7.533  -3.401   1.162  0.00  0.00    -0.478 OA
ATOM     23  H   UNL     1       8.153  -3.643   1.926  0.00  0.00    +0.295 HD
ENDBRANCH  20  22
ENDBRANCH  19  20
ENDBRANCH  16  17
ENDBRANCH   3  15
TORSDOF 6
