REMARK  Name = 
REMARK  7 active torsions:
REMARK  status: ('A' for Active; 'I' for Inactive)
REMARK    1  A    between atoms: C_1  and  O_2
REMARK    2  A    between atoms: O_2  and  C_3
REMARK    3  A    between atoms: C_11  and  C_12
REMARK    4  A    between atoms: N_14  and  C_15
REMARK    5  A    between atoms: C_15  and  C_16
REMARK    6  A    between atoms: N_20  and  C_21
REMARK    7  A    between atoms: C_21  and  C_22
REMARK                            x       y       z     vdW  Elec       q    Type
REMARK                         _______ _______ _______ _____ _____    ______ ____
ROOT
ATOM      1  C   UNL     1       1.262   0.831  -0.709  0.00  0.00    +0.248 C 
ATOM      2  O   UNL     1       0.997   1.968  -1.187  0.00  0.00    -0.270 OA
ATOM      3  N   UNL     1       0.227  -0.159  -0.598  0.00  0.00    -0.310 N 
ATOM      4  H   UNL     1       0.420  -1.051  -0.091  0.00  0.00    +0.149 HD
ENDROOT
BRANCH   1  13
ATOM      5  C   UNL     1       3.257  -0.716  -0.467  0.00  0.00    +0.134 A 
ATOM      6  C   UNL     1       4.567  -0.956   0.026  0.00  0.00    +0.078 A 
ATOM      7  C   UNL     1       5.203   0.076   0.704  0.00  0.00    +0.116 A 
ATOM      8  N   UNL     1       6.429   0.095   1.249  0.00  0.00    -0.155 NA
ATOM      9  N   UNL     1       6.552   1.316   1.765  0.00  0.00    -0.196 N 
ATOM     10  N   UNL     1       5.471   2.070   1.575  0.00  0.00    -0.155 NA
ATOM     11  C   UNL     1       4.619   1.283   0.902  0.00  0.00    +0.113 A 
ATOM     12  C   UNL     1       3.339   1.570   0.450  0.00  0.00    +0.048 A 
ATOM     13  C   UNL     1       2.634   0.550  -0.233  0.00  0.00    +0.080 A 
ATOM     14  H   UNL     1       7.405   1.647   2.265  0.00  0.00    +0.213 HD
BRANCH   5  16
ATOM     15  C   UNL     1       3.076  -2.987  -1.507  0.00  0.00    +0.277 C 
ATOM     16  O   UNL     1       2.568  -1.690  -1.207  0.00  0.00    -0.494 OA
ENDBRANCH   5  16
ENDBRANCH   1  13
BRANCH   3  17
ATOM     17  C   UNL     1      -1.122   0.051  -1.123  0.00  0.00    +0.123 C 
BRANCH  17  18
ATOM     18  C   UNL     1      -1.947   0.945  -0.168  0.00  0.00    +0.074 C 
ATOM     19  C   UNL     1      -2.112   0.342   1.222  0.00  0.00    +0.022 C 
ATOM     20  C   UNL     1      -3.395   0.949   1.758  0.00  0.00    +0.017 C 
ATOM     21  C   UNL     1      -4.106   1.575   0.559  0.00  0.00    +0.085 C 
ATOM     22  N   UNL     1      -3.294   1.330  -0.644  0.00  0.00    -0.294 NA
BRANCH  22  23
ATOM     23  C   UNL     1      -3.966   0.442  -1.627  0.00  0.00    +0.111 C 
BRANCH  23  24
ATOM     24  C   UNL     1      -4.301  -0.933  -1.096  0.00  0.00    -0.019 C 
ATOM     25  C   UNL     1      -4.840  -1.858  -1.895  0.00  0.00    +0.005 C 
ENDBRANCH  23  24
ENDBRANCH  22  23
ENDBRANCH  17  18
ENDBRANCH   3  17
TORSDOF 6
