REMARK  Name = 
REMARK  0 active torsions:
REMARK  status: ('A' for Active; 'I' for Inactive)
REMARK                            x       y       z     vdW  Elec       q    Type
REMARK                         _______ _______ _______ _____ _____    ______ ____
ROOT
ATOM      1  O   UNL     1      -1.122   2.629  -0.163  0.00  0.00    -0.265 OA
ATOM      2  C   UNL     1      -1.120   1.371  -0.107  0.00  0.00    +0.284 A 
ATOM      3  N   UNL     1      -2.292   0.667  -0.124  0.00  0.00    -0.197 NA
ATOM      4  C   UNL     1      -2.322  -0.708  -0.065  0.00  0.00    +0.227 A 
ATOM      5  N   UNL     1      -1.167  -1.439   0.015  0.00  0.00    -0.216 NA
ATOM      6  C   UNL     1       0.002  -0.762   0.034  0.00  0.00    +0.161 A 
ATOM      7  N   UNL     1       1.244  -1.258   0.107  0.00  0.00    -0.283 N 
ATOM      8  N   UNL     1       2.085  -0.227   0.096  0.00  0.00    -0.305 N 
ATOM      9  C   UNL     1       1.404   0.948   0.016  0.00  0.00    +0.118 A 
ATOM     10  C   UNL     1       0.058   0.653  -0.026  0.00  0.00    +0.102 A 
ATOM     11  H   UNL     1       1.522  -2.263   0.163  0.00  0.00    +0.188 HD
ATOM     12  H   UNL     1       3.124  -0.321   0.143  0.00  0.00    +0.186 HD
ENDROOT
TORSDOF 0
