REMARK  Name = 
REMARK  4 active torsions:
REMARK  status: ('A' for Active; 'I' for Inactive)
REMARK    1  A    between atoms: C_4  and  O_5
REMARK    2  A    between atoms: C_4  and  C_6
REMARK    3  A    between atoms: C_6  and  C_7
REMARK    4  A    between atoms: C_9  and  C_10
REMARK                            x       y       z     vdW  Elec       q    Type
REMARK                         _______ _______ _______ _____ _____    ______ ____
ROOT
ATOM      1  C   UNL     1       0.830  -0.839   0.322  0.00  0.00    +0.001 C 
ATOM      2  C   UNL     1       1.570  -1.847   1.187  0.00  0.00    +0.007 C 
ATOM      3  C   UNL     1       3.059  -1.520   0.978  0.00  0.00    +0.036 C 
ATOM      4  C   UNL     1       3.148  -0.176   0.179  0.00  0.00    +0.075 C 
ATOM      5  C   UNL     1       1.706   0.424   0.357  0.00  0.00    +0.000 C 
ATOM      6  C   UNL     1       1.642   1.169   1.736  0.00  0.00    +0.014 C 
ATOM      7  C   UNL     1       1.193   1.378  -0.753  0.00  0.00    +0.010 C 
ATOM      8  C   UNL     1      -0.306   1.716  -0.567  0.00  0.00    +0.005 C 
ATOM      9  C   UNL     1      -1.206   0.451  -0.432  0.00  0.00    -0.000 C 
ATOM     10  C   UNL     1      -2.686   0.814  -0.113  0.00  0.00    +0.018 C 
ATOM     11  C   UNL     1      -3.286   1.758  -1.182  0.00  0.00    +0.008 C 
ATOM     12  C   UNL     1      -4.801   1.872  -1.025  0.00  0.00    +0.005 C 
ATOM     13  C   UNL     1      -5.446   0.502  -1.222  0.00  0.00    +0.027 C 
ATOM     14  C   UNL     1      -4.794  -0.549  -0.365  0.00  0.00    -0.027 C 
ATOM     15  C   UNL     1      -3.513  -0.463   0.057  0.00  0.00    -0.070 C 
ATOM     16  C   UNL     1      -2.957  -1.558   0.939  0.00  0.00    +0.031 C 
ATOM     17  C   UNL     1      -1.493  -1.846   0.601  0.00  0.00    +0.008 C 
ATOM     18  C   UNL     1      -0.656  -0.553   0.632  0.00  0.00    -0.003 C 
ENDROOT
BRANCH   4  19
ATOM     19  O   UNL     1       4.106   0.694   0.746  0.00  0.00    -0.388 OA
ATOM     20  H   UNL     1       4.923   0.169   0.950  0.00  0.00    +0.210 HD
ENDBRANCH   4  19
BRANCH   4  21
ATOM     21  C   UNL     1       3.531  -0.431  -1.315  0.00  0.00    +0.062 C 
BRANCH  21  22
ATOM     22  C   UNL     1       4.877  -1.091  -1.489  0.00  0.00    -0.032 C 
ATOM     23  C   UNL     1       6.013  -0.388  -1.512  0.00  0.00    +0.004 C 
ENDBRANCH  21  22
ENDBRANCH   4  21
TORSDOF 3
