REMARK  Name = 
REMARK  7 active torsions:
REMARK  status: ('A' for Active; 'I' for Inactive)
REMARK    1  A    between atoms: C_5  and  C_8
REMARK    2  A    between atoms: C_8  and  N_9
REMARK    3  A    between atoms: C_8  and  C_29
REMARK    4  A    between atoms: N_18  and  C_19
REMARK    5  A    between atoms: C_19  and  C_20
REMARK    6  A    between atoms: N_24  and  C_25
REMARK    7  A    between atoms: C_25  and  C_26
REMARK                            x       y       z     vdW  Elec       q    Type
REMARK                         _______ _______ _______ _____ _____    ______ ____
ROOT
ATOM      1  N   UNL     1      -2.460  -0.063   0.941  0.00  0.00    -0.289 NA
ATOM      2  C   UNL     1      -1.653   1.104   1.371  0.00  0.00    +0.104 C 
ATOM      3  C   UNL     1      -0.393   1.299   0.518  0.00  0.00    +0.123 C 
ATOM      4  N   UNL     1       0.372   0.049   0.436  0.00  0.00    -0.297 N 
ATOM      5  C   UNL     1      -0.360  -1.189   0.137  0.00  0.00    +0.123 C 
ATOM      6  C   UNL     1      -1.627  -1.289   0.997  0.00  0.00    +0.104 C 
ATOM      7  C   UNL     1       1.812   0.087   0.331  0.00  0.00    +0.224 A 
ATOM      8  N   UNL     1       2.535  -1.065   0.302  0.00  0.00    -0.181 NA
ATOM      9  C   UNL     1       3.891  -1.031   0.229  0.00  0.00    +0.221 A 
ATOM     10  N   UNL     1       4.650  -2.245   0.204  0.00  0.00    -0.310 N 
ATOM     11  N   UNL     1       4.531   0.165   0.182  0.00  0.00    -0.181 NA
ATOM     12  C   UNL     1       3.819   1.323   0.199  0.00  0.00    +0.221 A 
ATOM     13  N   UNL     1       4.482   2.590   0.135  0.00  0.00    -0.310 N 
ATOM     14  N   UNL     1       2.465   1.278   0.276  0.00  0.00    -0.181 NA
ATOM     15  H   UNL     1       5.694  -2.180   0.228  0.00  0.00    +0.149 HD
ATOM     16  H   UNL     1       3.888   3.450   0.122  0.00  0.00    +0.149 HD
ENDROOT
BRANCH   1  17
ATOM     17  C   UNL     1      -3.157   0.136  -0.365  0.00  0.00    +0.117 C 
BRANCH  17  22
ATOM     18  F   UNL     1      -6.478  -4.240  -1.844  0.00  0.00    -0.205 F 
ATOM     19  C   UNL     1      -5.682  -3.202  -1.486  0.00  0.00    +0.123 A 
ATOM     20  C   UNL     1      -4.886  -2.568  -2.444  0.00  0.00    +0.038 A 
ATOM     21  C   UNL     1      -4.065  -1.498  -2.076  0.00  0.00    +0.008 A 
ATOM     22  C   UNL     1      -4.027  -1.054  -0.742  0.00  0.00    -0.026 A 
ATOM     23  C   UNL     1      -4.846  -1.690   0.211  0.00  0.00    +0.008 A 
ATOM     24  C   UNL     1      -5.662  -2.763  -0.159  0.00  0.00    +0.038 A 
ENDBRANCH  17  22
BRANCH  17  25
ATOM     25  C   UNL     1      -4.049   1.368  -0.354  0.00  0.00    -0.026 A 
ATOM     26  C   UNL     1      -4.058   2.238  -1.460  0.00  0.00    +0.008 A 
ATOM     27  C   UNL     1      -4.885   3.365  -1.465  0.00  0.00    +0.038 A 
ATOM     28  C   UNL     1      -5.718   3.631  -0.374  0.00  0.00    +0.123 A 
ATOM     29  F   UNL     1      -6.515   4.728  -0.382  0.00  0.00    -0.205 F 
ATOM     30  C   UNL     1      -5.731   2.765   0.722  0.00  0.00    +0.038 A 
ATOM     31  C   UNL     1      -4.905   1.636   0.733  0.00  0.00    +0.008 A 
ENDBRANCH  17  25
ENDBRANCH   1  17
BRANCH  10  32
ATOM     32  C   UNL     1       4.002  -3.550   0.088  0.00  0.00    +0.131 C 
BRANCH  32  33
ATOM     33  C   UNL     1       5.020  -4.657   0.143  0.00  0.00    -0.016 C 
ATOM     34  C   UNL     1       5.401  -5.205   1.303  0.00  0.00    +0.005 C 
ENDBRANCH  32  33
ENDBRANCH  10  32
BRANCH  13  35
ATOM     35  C   UNL     1       5.941   2.699   0.115  0.00  0.00    +0.131 C 
BRANCH  35  36
ATOM     36  C   UNL     1       6.375   4.130  -0.065  0.00  0.00    -0.016 C 
ATOM     37  C   UNL     1       7.657   4.481   0.043  0.00  0.00    +0.005 C 
ENDBRANCH  35  36
ENDBRANCH  13  35
TORSDOF 7
