REMARK  Name = 
REMARK  8 active torsions:
REMARK  status: ('A' for Active; 'I' for Inactive)
REMARK    1  A    between atoms: C_1  and  N_2
REMARK    2  A    between atoms: N_2  and  C_3
REMARK    3  A    between atoms: N_2  and  C_4
REMARK    4  A    between atoms: C_4  and  C_5
REMARK    5  A    between atoms: C_5  and  C_6
REMARK    6  A    between atoms: C_12  and  C_13
REMARK    7  A    between atoms: C_13  and  S_14
REMARK    8  A    between atoms: S_14  and  N_17
REMARK                            x       y       z     vdW  Elec       q    Type
REMARK                         _______ _______ _______ _____ _____    ______ ____
ROOT
ATOM      1  C   UNL     1       1.556  -0.842  -1.765  0.00  0.00    -0.021 A 
ATOM      2  C   UNL     1       1.470  -0.389  -3.078  0.00  0.00    +0.087 A 
ATOM      3  N   UNL     1       0.588   0.632  -3.169  0.00  0.00    -0.360 N 
ATOM      4  C   UNL     1       0.126   0.836  -1.923  0.00  0.00    +0.047 A 
ATOM      5  C   UNL     1       0.697  -0.040  -1.038  0.00  0.00    +0.003 A 
ATOM      6  C   UNL     1       0.394  -0.012   0.323  0.00  0.00    +0.015 A 
ATOM      7  C   UNL     1      -0.540   0.945   0.777  0.00  0.00    -0.024 A 
ATOM      8  C   UNL     1      -1.122   1.853  -0.145  0.00  0.00    +0.007 A 
ATOM      9  C   UNL     1      -0.788   1.801  -1.510  0.00  0.00    +0.026 A 
ATOM     10  H   UNL     1       0.334   1.163  -4.031  0.00  0.00    +0.165 HD
ENDROOT
BRANCH   1  11
ATOM     11  C   UNL     1       2.486  -1.900  -1.247  0.00  0.00    +0.052 C 
BRANCH  11  12
ATOM     12  C   UNL     1       3.858  -1.309  -0.899  0.00  0.00    +0.088 C 
BRANCH  12  14
ATOM     13  C   UNL     1       4.777   0.720   0.065  0.00  0.00    +0.104 C 
ATOM     14  N   UNL     1       3.742  -0.317   0.194  0.00  0.00    -0.308 NA
ATOM     15  C   UNL     1       3.854  -0.966   1.512  0.00  0.00    +0.104 C 
ENDBRANCH  12  14
ENDBRANCH  11  12
ENDBRANCH   1  11
BRANCH   7  16
ATOM     16  C   UNL     1      -0.917   0.992   2.231  0.00  0.00    +0.220 C 
BRANCH  16  17
ATOM     17  S   UNL     1      -1.988  -0.372   2.705  0.00  0.00    +0.036 S 
ATOM     18  O   UNL     1      -2.337  -0.190   4.155  0.00  0.00    -0.158 OA
ATOM     19  O   UNL     1      -1.224  -1.659   2.566  0.00  0.00    -0.158 OA
BRANCH  17  20
ATOM     20  N   UNL     1      -3.482  -0.496   1.800  0.00  0.00    -0.181 NA
ATOM     21  C   UNL     1      -3.296  -1.016   0.440  0.00  0.00    +0.109 C 
ATOM     22  C   UNL     1      -4.131  -0.161  -0.506  0.00  0.00    +0.018 C 
ATOM     23  C   UNL     1      -4.959   0.736   0.390  0.00  0.00    +0.018 C 
ATOM     24  C   UNL     1      -4.191   0.779   1.694  0.00  0.00    +0.109 C 
ENDBRANCH  17  20
ENDBRANCH  16  17
ENDBRANCH   7  16
TORSDOF 6
