REMARK  Name = 
REMARK  6 active torsions:
REMARK  status: ('A' for Active; 'I' for Inactive)
REMARK    1  A    between atoms: C_1  and  N_2
REMARK    2  A    between atoms: C_6  and  N_7
REMARK    3  A    between atoms: C_11  and  N_12
REMARK    4  A    between atoms: N_14  and  C_15
REMARK    5  A    between atoms: C_15  and  C_16
REMARK    6  A    between atoms: C_17  and  C_22
REMARK                            x       y       z     vdW  Elec       q    Type
REMARK                         _______ _______ _______ _____ _____    ______ ____
ROOT
ATOM      1  C   UNL     1      -1.303   4.361   0.210  0.00  0.00    +0.157 C 
ATOM      2  N   UNL     1      -0.611   3.061   0.252  0.00  0.00    -0.264 N 
ATOM      3  C   UNL     1       0.557   2.928   0.951  0.00  0.00    +0.258 A 
ATOM      4  O   UNL     1       1.061   3.909   1.563  0.00  0.00    -0.267 OA
ATOM      5  C   UNL     1       1.218   1.709   0.979  0.00  0.00    +0.112 A 
ATOM      6  C   UNL     1       0.656   0.611   0.331  0.00  0.00    +0.111 A 
ATOM      7  N   UNL     1      -0.578   0.726  -0.268  0.00  0.00    -0.277 N 
ATOM      8  C   UNL     1      -1.176   1.964  -0.352  0.00  0.00    +0.333 A 
ATOM      9  O   UNL     1      -2.256   2.098  -0.995  0.00  0.00    -0.246 OA
ENDROOT
BRANCH   6  10
ATOM     10  N   UNL     1       1.421  -0.608   0.253  0.00  0.00    -0.315 N 
ATOM     11  C   UNL     1       1.899  -1.279   1.467  0.00  0.00    +0.106 C 
ATOM     12  C   UNL     1       3.431  -1.268   1.505  0.00  0.00    +0.020 C 
ATOM     13  C   UNL     1       4.018  -1.812   0.195  0.00  0.00    +0.021 C 
ATOM     14  C   UNL     1       3.476  -1.028  -1.020  0.00  0.00    +0.068 C 
ATOM     15  C   UNL     1       1.942  -1.067  -1.039  0.00  0.00    +0.125 C 
BRANCH  14  16
ATOM     16  N   UNL     1       4.006  -1.566  -2.274  0.00  0.00    -0.326 NA
ATOM     17  H   UNL     1       3.801  -2.591  -2.326  0.00  0.00    +0.119 HD
ATOM     18  H   UNL     1       5.046  -1.456  -2.271  0.00  0.00    +0.119 HD
ENDBRANCH  14  16
ENDBRANCH   6  10
BRANCH   7  19
ATOM     19  C   UNL     1      -1.237  -0.461  -0.867  0.00  0.00    +0.164 C 
BRANCH  19  20
ATOM     20  C   UNL     1      -2.674  -0.623  -0.406  0.00  0.00    -0.010 A 
ATOM     21  C   UNL     1      -3.006  -0.831   0.954  0.00  0.00    +0.057 A 
ATOM     22  C   UNL     1      -4.349  -0.979   1.329  0.00  0.00    +0.019 A 
ATOM     23  C   UNL     1      -5.361  -0.929   0.369  0.00  0.00    +0.001 A 
ATOM     24  C   UNL     1      -5.040  -0.735  -0.974  0.00  0.00    +0.000 A 
ATOM     25  C   UNL     1      -3.707  -0.586  -1.362  0.00  0.00    +0.006 A 
BRANCH  21  26
ATOM     26  C   UNL     1      -1.996  -0.901   1.980  0.00  0.00    +0.099 C 
ATOM     27  N   UNL     1      -1.192  -0.958   2.811  0.00  0.00    -0.191 NA
ENDBRANCH  21  26
ENDBRANCH  19  20
ENDBRANCH   7  19
TORSDOF 5
