REMARK  Name = 
REMARK  4 active torsions:
REMARK  status: ('A' for Active; 'I' for Inactive)
REMARK    1  A    between atoms: C_1  and  N_2
REMARK    2  A    between atoms: N_13  and  C_14
REMARK    3  A    between atoms: C_14  and  C_15
REMARK    4  A    between atoms: C_16  and  C_17
REMARK                            x       y       z     vdW  Elec       q    Type
REMARK                         _______ _______ _______ _____ _____    ______ ____
ROOT
ATOM      1  C   UNL     1       2.845   0.055   2.290  0.00  0.00    +0.149 C 
ATOM      2  N   UNL     1       2.363   0.015   0.909  0.00  0.00    -0.346 N 
ATOM      3  C   UNL     1       1.273  -0.646   0.441  0.00  0.00    +0.033 A 
ATOM      4  C   UNL     1       1.029  -0.310  -0.876  0.00  0.00    +0.065 A 
ATOM      5  C   UNL     1       2.008   0.591  -1.238  0.00  0.00    +0.012 A 
ATOM      6  C   UNL     1       2.224   1.297  -2.422  0.00  0.00    +0.011 A 
ATOM      7  C   UNL     1       3.295   2.206  -2.458  0.00  0.00    +0.001 A 
ATOM      8  C   UNL     1       4.108   2.399  -1.320  0.00  0.00    +0.002 A 
ATOM      9  C   UNL     1       3.861   1.684  -0.135  0.00  0.00    +0.026 A 
ATOM     10  C   UNL     1       2.800   0.772  -0.125  0.00  0.00    +0.050 A 
ATOM     11  C   UNL     1      -0.166  -0.781  -1.575  0.00  0.00    +0.249 C 
ATOM     12  O   UNL     1      -0.429  -0.404  -2.748  0.00  0.00    -0.270 OA
ATOM     13  N   UNL     1      -1.053  -1.657  -0.851  0.00  0.00    -0.291 N 
ATOM     14  C   UNL     1      -0.518  -2.394   0.312  0.00  0.00    +0.114 C 
ATOM     15  C   UNL     1       0.300  -1.471   1.243  0.00  0.00    +0.073 C 
ENDROOT
BRANCH  13  16
ATOM     16  C   UNL     1      -2.480  -1.736  -1.180  0.00  0.00    +0.165 C 
BRANCH  16  17
ATOM     17  C   UNL     1      -3.294  -1.040  -0.130  0.00  0.00    +0.079 A 
ATOM     18  C   UNL     1      -3.342   0.317   0.124  0.00  0.00    +0.037 A 
ATOM     19  C   UNL     1      -2.577   1.399  -0.570  0.00  0.00    +0.065 C 
ATOM     20  N   UNL     1      -4.125   0.517   1.195  0.00  0.00    -0.348 N 
ATOM     21  C   UNL     1      -4.546  -0.709   1.561  0.00  0.00    +0.197 A 
ATOM     22  N   UNL     1      -4.052  -1.690   0.776  0.00  0.00    -0.239 NA
ATOM     23  H   UNL     1      -4.350   1.425   1.660  0.00  0.00    +0.166 HD
ENDBRANCH  16  17
ENDBRANCH  13  16
TORSDOF 2
