REMARK  Name = 
REMARK  15 active torsions:
REMARK  status: ('A' for Active; 'I' for Inactive)
REMARK    1  A    between atoms: C_1  and  C_2
REMARK    2  A    between atoms: C_2  and  C_3
REMARK    3  A    between atoms: C_4  and  C_5
REMARK    4  A    between atoms: C_5  and  C_6
REMARK    5  A    between atoms: C_7  and  C_8
REMARK    6  A    between atoms: C_8  and  C_9
REMARK    7  A    between atoms: C_10  and  C_11
REMARK    8  A    between atoms: C_11  and  C_12
REMARK    9  A    between atoms: C_12  and  C_13
REMARK   10  A    between atoms: C_13  and  C_14
REMARK   11  A    between atoms: C_14  and  C_15
REMARK   12  A    between atoms: C_15  and  C_16
REMARK   13  A    between atoms: C_16  and  C_17
REMARK   14  A    between atoms: C_17  and  C_18
REMARK   15  A    between atoms: C_18  and  O_19
REMARK                            x       y       z     vdW  Elec       q    Type
REMARK                         _______ _______ _______ _____ _____    ______ ____
ROOT
ATOM      1  C   UNL     1      -0.414  -1.294   0.331  0.00  0.00    +0.027 C 
ENDROOT
BRANCH   1   3
ATOM      2  C   UNL     1       1.315  -1.321  -1.484  0.00  0.00    -0.027 C 
ATOM      3  C   UNL     1       0.032  -1.198  -1.106  0.00  0.00    -0.031 C 
BRANCH   2   4
ATOM      4  C   UNL     1       2.439  -1.566  -0.508  0.00  0.00    +0.053 C 
BRANCH   4   6
ATOM      5  C   UNL     1       4.430  -0.565  -1.684  0.00  0.00    -0.027 C 
ATOM      6  C   UNL     1       3.769  -1.638  -1.214  0.00  0.00    -0.027 C 
BRANCH   5   7
ATOM      7  C   UNL     1       3.920   0.848  -1.545  0.00  0.00    +0.053 C 
BRANCH   7   9
ATOM      8  C   UNL     1       6.024   2.238  -1.639  0.00  0.00    -0.031 C 
ATOM      9  C   UNL     1       4.865   1.831  -2.187  0.00  0.00    -0.027 C 
BRANCH   8  11
ATOM     10  C   UNL     1       5.996   2.756   0.804  0.00  0.00    +0.008 C 
ATOM     11  C   UNL     1       6.519   1.818  -0.279  0.00  0.00    +0.023 C 
ENDBRANCH   8  11
ENDBRANCH   7   9
ENDBRANCH   5   7
ENDBRANCH   4   6
ENDBRANCH   2   4
ENDBRANCH   1   3
BRANCH   1  12
ATOM     12  C   UNL     1      -1.932  -1.128   0.453  0.00  0.00    +0.004 C 
BRANCH  12  13
ATOM     13  C   UNL     1      -2.381  -1.223   1.918  0.00  0.00    +0.000 C 
BRANCH  13  14
ATOM     14  C   UNL     1      -3.911  -1.247   2.077  0.00  0.00    +0.000 C 
BRANCH  14  15
ATOM     15  C   UNL     1      -4.600   0.064   1.646  0.00  0.00    +0.001 C 
BRANCH  15  16
ATOM     16  C   UNL     1      -5.265  -0.057   0.263  0.00  0.00    +0.011 C 
BRANCH  16  17
ATOM     17  C   UNL     1      -5.862   1.273  -0.214  0.00  0.00    +0.120 C 
BRANCH  17  18
ATOM     18  C   UNL     1      -7.046   1.676   0.611  0.00  0.00    +0.305 C 
ATOM     19  O   UNL     1      -6.937   2.591   1.469  0.00  0.00    -0.251 OA
BRANCH  18  20
ATOM     20  O   UNL     1      -8.262   1.019   0.446  0.00  0.00    -0.481 OA
ATOM     21  H   UNL     1      -9.070   1.276   0.999  0.00  0.00    +0.295 HD
ENDBRANCH  18  20
ENDBRANCH  17  18
ENDBRANCH  16  17
ENDBRANCH  15  16
ENDBRANCH  14  15
ENDBRANCH  13  14
ENDBRANCH  12  13
ENDBRANCH   1  12
TORSDOF 14
