REMARK  Name = 
REMARK  2 active torsions:
REMARK  status: ('A' for Active; 'I' for Inactive)
REMARK    1  A    between atoms: C_1  and  C_2
REMARK    2  A    between atoms: C_8  and  C_9
REMARK                            x       y       z     vdW  Elec       q    Type
REMARK                         _______ _______ _______ _____ _____    ______ ____
ROOT
ATOM      1  C   UNL     1      -3.883  -1.097   0.957  0.00  0.00    +0.088 C 
ATOM      2  C   UNL     1      -3.197   0.222   1.129  0.00  0.00    +0.135 A 
ATOM      3  N   UNL     1      -3.545   1.113   2.079  0.00  0.00    -0.134 NA
ATOM      4  N   UNL     1      -2.711   2.138   1.977  0.00  0.00    -0.132 NA
ATOM      5  C   UNL     1      -1.877   1.858   0.959  0.00  0.00    +0.159 A 
ATOM      6  C   UNL     1      -0.714   2.697   0.559  0.00  0.00    +0.218 C 
ATOM      7  N   UNL     1       0.507   1.929   0.768  0.00  0.00    -0.275 NA
ATOM      8  C   UNL     1       0.820   0.809   0.174  0.00  0.00    +0.075 C 
ATOM      9  C   UNL     1      -0.059   0.187  -0.870  0.00  0.00    +0.026 A 
ATOM     10  C   UNL     1      -1.470   0.080  -0.725  0.00  0.00    +0.059 A 
ATOM     11  C   UNL     1      -2.221  -0.532  -1.744  0.00  0.00    +0.028 A 
ATOM     12  C   UNL     1      -1.597  -1.058  -2.874  0.00  0.00    +0.022 A 
ATOM     13  C   UNL     1      -0.214  -0.962  -3.017  0.00  0.00    +0.042 A 
ATOM     14 CL   UNL     1       0.568  -1.613  -4.446  0.00  0.00    -0.084 Cl
ATOM     15  C   UNL     1       0.548  -0.339  -2.027  0.00  0.00    +0.032 A 
ATOM     16  N   UNL     1      -2.148   0.667   0.402  0.00  0.00    -0.281 N 
ENDROOT
BRANCH   8  17
ATOM     17  C   UNL     1       2.105   0.162   0.545  0.00  0.00    +0.001 A 
ATOM     18  C   UNL     1       3.207   0.943   0.943  0.00  0.00    +0.010 A 
ATOM     19  C   UNL     1       4.414   0.334   1.303  0.00  0.00    +0.001 A 
ATOM     20  C   UNL     1       4.532  -1.057   1.277  0.00  0.00    +0.000 A 
ATOM     21  C   UNL     1       3.443  -1.844   0.895  0.00  0.00    +0.001 A 
ATOM     22  C   UNL     1       2.234  -1.240   0.534  0.00  0.00    +0.010 A 
ENDBRANCH   8  17
TORSDOF 1
