REMARK  Name = 
REMARK  17 active torsions:
REMARK  status: ('A' for Active; 'I' for Inactive)
REMARK    1  A    between atoms: C_1  and  C_2
REMARK    2  A    between atoms: C_2  and  C_3
REMARK    3  A    between atoms: C_3  and  C_4
REMARK    4  A    between atoms: C_4  and  C_5
REMARK    5  A    between atoms: C_5  and  C_6
REMARK    6  A    between atoms: C_6  and  O_7
REMARK    7  A    between atoms: C_6  and  C_8
REMARK    8  A    between atoms: C_9  and  C_10
REMARK    9  A    between atoms: C_11  and  O_12
REMARK   10  A    between atoms: C_16  and  C_17
REMARK   11  A    between atoms: C_17  and  C_18
REMARK   12  A    between atoms: C_18  and  C_19
REMARK   13  A    between atoms: C_19  and  C_20
REMARK   14  A    between atoms: C_20  and  C_21
REMARK   15  A    between atoms: C_21  and  C_22
REMARK   16  A    between atoms: C_22  and  C_23
REMARK   17  A    between atoms: C_23  and  O_24
REMARK                            x       y       z     vdW  Elec       q    Type
REMARK                         _______ _______ _______ _____ _____    ______ ____
ROOT
ATOM      1  C   UNL     1      -0.313  -2.109  -0.601  0.00  0.00    +0.051 C 
ATOM      2  C   UNL     1      -0.028  -3.520  -0.051  0.00  0.00    +0.129 C 
ATOM      3  C   UNL     1      -1.395  -4.163   0.183  0.00  0.00    +0.106 C 
ATOM      4  C   UNL     1      -2.310  -3.004   0.316  0.00  0.00    +0.140 C 
ATOM      5  O   UNL     1      -3.466  -3.118   0.692  0.00  0.00    -0.297 OA
ATOM      6  C   UNL     1      -1.672  -1.692  -0.000  0.00  0.00    +0.065 C 
ENDROOT
BRANCH   1   8
ATOM      7  C   UNL     1       2.016  -1.243  -0.786  0.00  0.00    -0.000 C 
ATOM      8  C   UNL     1       0.786  -1.125  -0.263  0.00  0.00    -0.022 C 
BRANCH   7   9
ATOM      9  C   UNL     1       3.105  -0.252  -0.450  0.00  0.00    +0.137 C 
BRANCH   9  10
ATOM     10  O   UNL     1       3.425  -0.368   0.914  0.00  0.00    -0.388 OA
ATOM     11  H   UNL     1       2.803   0.225   1.409  0.00  0.00    +0.210 HD
ENDBRANCH   9  10
BRANCH   9  12
ATOM     12  C   UNL     1       4.363  -0.525  -1.300  0.00  0.00    +0.035 C 
BRANCH  12  13
ATOM     13  C   UNL     1       5.370   0.640  -1.304  0.00  0.00    +0.003 C 
BRANCH  13  14
ATOM     14  C   UNL     1       6.045   0.865   0.057  0.00  0.00    -0.000 C 
BRANCH  14  16
ATOM     15  C   UNL     1       7.883   2.085   1.284  0.00  0.00    +0.004 C 
ATOM     16  C   UNL     1       7.217   1.847  -0.068  0.00  0.00    -0.003 C 
ENDBRANCH  14  16
ENDBRANCH  13  14
ENDBRANCH  12  13
ENDBRANCH   9  12
ENDBRANCH   7   9
ENDBRANCH   1   8
BRANCH   2  17
ATOM     17  O   UNL     1       0.726  -4.266  -0.971  0.00  0.00    -0.391 OA
ATOM     18  H   UNL     1       1.044  -5.072  -0.487  0.00  0.00    +0.210 HD
ENDBRANCH   2  17
BRANCH   6  19
ATOM     19  C   UNL     1      -2.503  -0.848  -0.995  0.00  0.00    +0.012 C 
BRANCH  19  20
ATOM     20  C   UNL     1      -3.609  -0.022  -0.312  0.00  0.00    +0.001 C 
BRANCH  20  21
ATOM     21  C   UNL     1      -3.060   1.273   0.311  0.00  0.00    +0.000 C 
BRANCH  21  22
ATOM     22  C   UNL     1      -4.123   2.051   1.102  0.00  0.00    +0.001 C 
BRANCH  22  23
ATOM     23  C   UNL     1      -5.246   2.632   0.215  0.00  0.00    +0.011 C 
BRANCH  23  24
ATOM     24  C   UNL     1      -6.555   1.846   0.352  0.00  0.00    +0.120 C 
BRANCH  24  25
ATOM     25  C   UNL     1      -7.600   2.402  -0.564  0.00  0.00    +0.305 C 
ATOM     26  O   UNL     1      -8.250   3.428  -0.229  0.00  0.00    -0.251 OA
BRANCH  25  27
ATOM     27  O   UNL     1      -7.824   1.809  -1.804  0.00  0.00    -0.481 OA
ATOM     28  H   UNL     1      -8.513   2.187  -2.441  0.00  0.00    +0.295 HD
ENDBRANCH  25  27
ENDBRANCH  24  25
ENDBRANCH  23  24
ENDBRANCH  22  23
ENDBRANCH  21  22
ENDBRANCH  20  21
ENDBRANCH  19  20
ENDBRANCH   6  19
TORSDOF 16
