REMARK  Name = 
REMARK  11 active torsions:
REMARK  status: ('A' for Active; 'I' for Inactive)
REMARK    1  A    between atoms: C_1  and  C_2
REMARK    2  A    between atoms: C_2  and  C_3
REMARK    3  A    between atoms: C_2  and  N_4
REMARK    4  A    between atoms: N_4  and  C_5
REMARK    5  A    between atoms: C_5  and  C_6
REMARK    6  A    between atoms: C_6  and  O_7
REMARK    7  A    between atoms: C_6  and  C_8
REMARK    8  A    between atoms: C_8  and  O_9
REMARK    9  A    between atoms: O_9  and  C_10
REMARK   10  A    between atoms: C_15  and  C_16
REMARK   11  A    between atoms: C_16  and  C_17
REMARK                            x       y       z     vdW  Elec       q    Type
REMARK                         _______ _______ _______ _____ _____    ______ ____
ROOT
ATOM      1  C   UNL     1       0.093  -0.237   2.128  0.00  0.00    +0.261 C 
ENDROOT
BRANCH   1   2
ATOM      2  C   UNL     1      -1.297  -0.146   1.472  0.00  0.00    +0.166 C 
BRANCH   2   3
ATOM      3  O   UNL     1      -1.498   1.135   0.929  0.00  0.00    -0.387 OA
ATOM      4  H   UNL     1      -0.984   1.195   0.083  0.00  0.00    +0.210 HD
ENDBRANCH   2   3
BRANCH   2   5
ATOM      5  C   UNL     1      -1.503  -1.268   0.417  0.00  0.00    +0.115 C 
BRANCH   5   6
ATOM      6  N   UNL     1      -2.922  -1.564   0.140  0.00  0.00    -0.311 NA
ATOM      7  H   UNL     1      -3.404  -1.735   1.054  0.00  0.00    +0.122 HD
BRANCH   6   9
ATOM      8  C   UNL     1      -5.134  -0.898  -0.692  0.00  0.00    +0.023 C 
ATOM      9  C   UNL     1      -3.649  -0.520  -0.612  0.00  0.00    +0.048 C 
ATOM     10  C   UNL     1      -3.090  -0.359  -2.035  0.00  0.00    +0.023 C 
ENDBRANCH   6   9
ENDBRANCH   5   6
ENDBRANCH   2   5
ENDBRANCH   1   2
BRANCH   1  11
ATOM     11  O   UNL     1       1.140  -0.232   1.154  0.00  0.00    -0.489 OA
BRANCH  11  12
ATOM     12  C   UNL     1       1.731   0.899   0.562  0.00  0.00    +0.124 A 
ATOM     13  C   UNL     1       1.471   2.210   1.016  0.00  0.00    +0.046 A 
ATOM     14  C   UNL     1       2.088   3.305   0.409  0.00  0.00    +0.004 A 
ATOM     15  C   UNL     1       2.974   3.113  -0.650  0.00  0.00    +0.001 A 
ATOM     16  C   UNL     1       3.243   1.823  -1.110  0.00  0.00    +0.007 A 
ATOM     17  C   UNL     1       2.621   0.711  -0.518  0.00  0.00    -0.002 A 
BRANCH  17  18
ATOM     18  C   UNL     1       2.949  -0.671  -1.030  0.00  0.00    +0.065 C 
BRANCH  18  19
ATOM     19  C   UNL     1       4.251  -1.157  -0.460  0.00  0.00    -0.030 C 
ATOM     20  C   UNL     1       4.361  -1.548   0.814  0.00  0.00    +0.004 C 
ENDBRANCH  18  19
ENDBRANCH  17  18
ENDBRANCH  11  12
ENDBRANCH   1  11
TORSDOF 9
