REMARK  Name = 
REMARK  6 active torsions:
REMARK  status: ('A' for Active; 'I' for Inactive)
REMARK    1  A    between atoms: C_1  and  N_2
REMARK    2  A    between atoms: N_2  and  C_3
REMARK    3  A    between atoms: N_10  and  C_11
REMARK    4  A    between atoms: N_10  and  C_12
REMARK    5  A    between atoms: N_13  and  C_14
REMARK    6  A    between atoms: N_13  and  C_15
REMARK                            x       y       z     vdW  Elec       q    Type
REMARK                         _______ _______ _______ _____ _____    ______ ____
ROOT
ATOM      1  C   UNL     1       0.382   3.695  -0.538  0.00  0.00    +0.132 C 
ATOM      2  N   UNL     1      -0.556   2.748   0.072  0.00  0.00    -0.306 N 
ATOM      3  C   UNL     1      -1.783   3.224   0.718  0.00  0.00    +0.132 C 
ATOM      4  C   UNL     1      -0.271   1.336   0.035  0.00  0.00    +0.223 A 
ATOM      5  N   UNL     1       0.863   0.880  -0.561  0.00  0.00    -0.181 NA
ATOM      6  C   UNL     1       1.139  -0.450  -0.600  0.00  0.00    +0.223 A 
ATOM      7  N   UNL     1       0.269  -1.327  -0.035  0.00  0.00    -0.181 NA
ATOM      8  C   UNL     1      -0.869  -0.886   0.565  0.00  0.00    +0.223 A 
ATOM      9  N   UNL     1      -1.131   0.447   0.596  0.00  0.00    -0.181 NA
ATOM     10  N   UNL     1      -1.786  -1.823   1.162  0.00  0.00    -0.306 N 
ATOM     11  C   UNL     1      -3.009  -1.333   1.806  0.00  0.00    +0.132 C 
ATOM     12  C   UNL     1      -1.489  -3.258   1.121  0.00  0.00    +0.132 C 
ATOM     13  N   UNL     1       2.342  -0.925  -1.234  0.00  0.00    -0.306 N 
ATOM     14  C   UNL     1       3.272   0.034  -1.840  0.00  0.00    +0.132 C 
ATOM     15  C   UNL     1       2.627  -2.362  -1.268  0.00  0.00    +0.132 C 
ENDROOT
TORSDOF 0
