REMARK  Name = 
REMARK  10 active torsions:
REMARK  status: ('A' for Active; 'I' for Inactive)
REMARK    1  A    between atoms: C_1  and  C_2
REMARK    2  A    between atoms: C_2  and  N_3
REMARK    3  A    between atoms: N_3  and  C_4
REMARK    4  A    between atoms: N_3  and  C_13
REMARK    5  A    between atoms: C_4  and  C_5
REMARK    6  A    between atoms: C_5  and  C_6
REMARK    7  A    between atoms: C_6  and  C_7
REMARK    8  A    between atoms: C_13  and  C_14
REMARK    9  A    between atoms: C_14  and  C_15
REMARK   10  A    between atoms: C_15  and  C_16
REMARK                            x       y       z     vdW  Elec       q    Type
REMARK                         _______ _______ _______ _____ _____    ______ ____
ROOT
ATOM      1  N   UNL     1      -0.170  -1.489  -0.772  0.00  0.00    -0.303 NA
ENDROOT
BRANCH   1   3
ATOM      2  C   UNL     1      -0.929  -2.136   1.493  0.00  0.00    +0.020 C 
ATOM      3  C   UNL     1      -0.165  -2.569   0.246  0.00  0.00    +0.081 C 
ENDBRANCH   1   3
BRANCH   1   4
ATOM      4  C   UNL     1       1.082  -1.522  -1.569  0.00  0.00    +0.084 C 
BRANCH   4   5
ATOM      5  C   UNL     1       2.244  -0.833  -0.834  0.00  0.00    +0.020 C 
BRANCH   5   6
ATOM      6  C   UNL     1       1.917   0.618  -0.462  0.00  0.00    +0.036 C 
BRANCH   6   7
ATOM      7  C   UNL     1       3.109   1.284   0.169  0.00  0.00    -0.047 A 
ATOM      8  C   UNL     1       4.051   1.957  -0.628  0.00  0.00    +0.003 A 
ATOM      9  C   UNL     1       5.174   2.548  -0.042  0.00  0.00    +0.000 A 
ATOM     10  C   UNL     1       5.371   2.463   1.339  0.00  0.00    +0.000 A 
ATOM     11  C   UNL     1       4.446   1.784   2.137  0.00  0.00    +0.000 A 
ATOM     12  C   UNL     1       3.321   1.191   1.555  0.00  0.00    +0.003 A 
ENDBRANCH   6   7
ENDBRANCH   5   6
ENDBRANCH   4   5
ENDBRANCH   1   4
BRANCH   1  13
ATOM     13  C   UNL     1      -1.361  -1.622  -1.647  0.00  0.00    +0.084 C 
BRANCH  13  14
ATOM     14  C   UNL     1      -1.719  -0.314  -2.381  0.00  0.00    +0.020 C 
BRANCH  14  15
ATOM     15  C   UNL     1      -1.894   0.906  -1.460  0.00  0.00    +0.036 C 
BRANCH  15  16
ATOM     16  C   UNL     1      -2.954   0.710  -0.404  0.00  0.00    -0.047 A 
ATOM     17  C   UNL     1      -2.618   0.795   0.958  0.00  0.00    +0.003 A 
ATOM     18  C   UNL     1      -3.599   0.619   1.939  0.00  0.00    +0.000 A 
ATOM     19  C   UNL     1      -4.923   0.372   1.569  0.00  0.00    +0.000 A 
ATOM     20  C   UNL     1      -5.270   0.307   0.217  0.00  0.00    +0.000 A 
ATOM     21  C   UNL     1      -4.292   0.481  -0.767  0.00  0.00    +0.003 A 
ENDBRANCH  15  16
ENDBRANCH  14  15
ENDBRANCH  13  14
ENDBRANCH   1  13
TORSDOF 9
