REMARK  Name = 
REMARK  12 active torsions:
REMARK  status: ('A' for Active; 'I' for Inactive)
REMARK    1  A    between atoms: C_1  and  C_2
REMARK    2  A    between atoms: N_4  and  C_5
REMARK    3  A    between atoms: C_5  and  C_6
REMARK    4  A    between atoms: C_6  and  C_7
REMARK    5  A    between atoms: C_6  and  C_14
REMARK    6  A    between atoms: C_7  and  C_8
REMARK    7  A    between atoms: N_16  and  C_17
REMARK    8  A    between atoms: C_17  and  C_18
REMARK    9  A    between atoms: C_18  and  O_19
REMARK   10  A    between atoms: C_23  and  C_24
REMARK   11  A    between atoms: C_23  and  C_25
REMARK   12  A    between atoms: C_27  and  O_28
REMARK                            x       y       z     vdW  Elec       q    Type
REMARK                         _______ _______ _______ _____ _____    ______ ____
ROOT
ATOM      1  C   UNL     1      -0.814   0.552  -1.061  0.00  0.00    +0.097 C 
ENDROOT
BRANCH   1   5
ATOM      2  C   UNL     1       2.887  -0.259   2.153  0.00  0.00    +0.009 C 
ATOM      3  C   UNL     1       2.141  -0.820   0.928  0.00  0.00    +0.010 C 
ATOM      4  C   UNL     1       1.033   0.164   0.487  0.00  0.00    +0.088 C 
ATOM      5  N   UNL     1       0.330  -0.326  -0.714  0.00  0.00    -0.301 NA
ATOM      6  C   UNL     1       1.273  -0.410  -1.842  0.00  0.00    +0.085 C 
ATOM      7  C   UNL     1       2.333  -1.479  -1.570  0.00  0.00    +0.027 C 
ATOM      8  C   UNL     1       3.109  -1.312  -0.225  0.00  0.00    -0.002 C 
ATOM      9  C   UNL     1       3.575  -2.748   0.170  0.00  0.00    +0.016 C 
BRANCH   8  10
ATOM     10  C   UNL     1       4.341  -0.376  -0.443  0.00  0.00    -0.038 A 
ATOM     11  C   UNL     1       4.174   1.005  -0.698  0.00  0.00    +0.049 A 
ATOM     12  C   UNL     1       5.266   1.852  -0.910  0.00  0.00    +0.117 A 
ATOM     13  C   UNL     1       6.563   1.337  -0.887  0.00  0.00    +0.045 A 
ATOM     14  C   UNL     1       6.764  -0.020  -0.658  0.00  0.00    +0.004 A 
ATOM     15  C   UNL     1       5.675  -0.868  -0.443  0.00  0.00    +0.004 A 
BRANCH  12  16
ATOM     16  O   UNL     1       5.048   3.208  -1.145  0.00  0.00    -0.507 OA
ATOM     17  H   UNL     1       5.817   3.849  -1.303  0.00  0.00    +0.292 HD
ENDBRANCH  12  16
ENDBRANCH   8  10
ENDBRANCH   1   5
BRANCH   1  18
ATOM     18  C   UNL     1      -2.072   0.198  -0.239  0.00  0.00    +0.093 C 
BRANCH  18  19
ATOM     19  C   UNL     1      -3.199   1.140  -0.595  0.00  0.00    +0.218 C 
ATOM     20  O   UNL     1      -3.611   1.201  -1.787  0.00  0.00    -0.275 OA
ATOM     21  N   UNL     1      -3.823   1.938   0.423  0.00  0.00    -0.305 N 
ATOM     22  H   UNL     1      -3.523   1.825   1.416  0.00  0.00    +0.149 HD
BRANCH  21  23
ATOM     23  C   UNL     1      -4.942   2.835   0.136  0.00  0.00    +0.224 C 
BRANCH  23  24
ATOM     24  C   UNL     1      -4.480   4.102  -0.521  0.00  0.00    +0.322 C 
ATOM     25  O   UNL     1      -3.306   4.213  -0.967  0.00  0.00    -0.249 OA
BRANCH  24  26
ATOM     26  O   UNL     1      -5.371   5.162  -0.655  0.00  0.00    -0.480 OA
ATOM     27  H   UNL     1      -5.090   6.024  -1.107  0.00  0.00    +0.295 HD
ENDBRANCH  24  26
ENDBRANCH  23  24
ENDBRANCH  21  23
ENDBRANCH  18  19
BRANCH  18  28
ATOM     28  C   UNL     1      -2.500  -1.270  -0.460  0.00  0.00    +0.049 C 
BRANCH  28  29
ATOM     29  C   UNL     1      -3.644  -1.653   0.444  0.00  0.00    -0.047 A 
ATOM     30  C   UNL     1      -3.401  -1.979   1.789  0.00  0.00    +0.003 A 
ATOM     31  C   UNL     1      -4.463  -2.296   2.641  0.00  0.00    +0.000 A 
ATOM     32  C   UNL     1      -5.775  -2.283   2.159  0.00  0.00    +0.000 A 
ATOM     33  C   UNL     1      -6.027  -1.950   0.825  0.00  0.00    +0.000 A 
ATOM     34  C   UNL     1      -4.967  -1.633  -0.031  0.00  0.00    +0.003 A 
ENDBRANCH  28  29
ENDBRANCH  18  28
ENDBRANCH   1  18
TORSDOF 10
