REMARK  Name = 
REMARK  1 active torsions:
REMARK  status: ('A' for Active; 'I' for Inactive)
REMARK    1  A    between atoms: N_1  and  C_2
REMARK                            x       y       z     vdW  Elec       q    Type
REMARK                         _______ _______ _______ _____ _____    ______ ____
ROOT
ATOM      1  C   UNL     1       1.288   0.054  -0.212  0.00  0.00    +0.017 C 
ATOM      2  C   UNL     1       0.754  -1.333  -0.659  0.00  0.00    +0.025 C 
ATOM      3  C   UNL     1      -0.774  -1.403  -0.446  0.00  0.00    -0.009 C 
ATOM      4  C   UNL     1      -1.095  -1.188   1.049  0.00  0.00    +0.007 C 
ATOM      5  C   UNL     1      -0.579   0.197   1.498  0.00  0.00    -0.009 C 
ATOM      6  C   UNL     1      -1.264   1.298   0.658  0.00  0.00    +0.007 C 
ATOM      7  C   UNL     1      -0.943   1.084  -0.838  0.00  0.00    -0.009 C 
ATOM      8  C   UNL     1      -1.460  -0.301  -1.283  0.00  0.00    +0.007 C 
ATOM      9  C   UNL     1       0.586   1.154  -1.051  0.00  0.00    +0.025 C 
ATOM     10  C   UNL     1       0.950   0.268   1.290  0.00  0.00    +0.025 C 
ENDROOT
BRANCH   1  11
ATOM     11  N   UNL     1       2.737   0.117  -0.432  0.00  0.00    -0.325 NA
ATOM     12  H   UNL     1       3.207  -0.610   0.155  0.00  0.00    +0.119 HD
ATOM     13  H   UNL     1       3.095   1.045  -0.106  0.00  0.00    +0.119 HD
ENDBRANCH   1  11
TORSDOF 1
