REMARK  Name = 
REMARK  19 active torsions:
REMARK  status: ('A' for Active; 'I' for Inactive)
REMARK    1  A    between atoms: C_1  and  C_2
REMARK    2  A    between atoms: C_2  and  N_3
REMARK    3  A    between atoms: N_3  and  C_4
REMARK    4  A    between atoms: N_3  and  C_6
REMARK    5  A    between atoms: N_3  and  C_29
REMARK    6  A    between atoms: C_4  and  C_5
REMARK    7  A    between atoms: C_6  and  C_7
REMARK    8  A    between atoms: C_7  and  N_8
REMARK    9  A    between atoms: C_9  and  C_11
REMARK   10  A    between atoms: N_13  and  C_14
REMARK   11  A    between atoms: C_14  and  C_15
REMARK   12  A    between atoms: C_15  and  N_16
REMARK   13  A    between atoms: N_16  and  C_17
REMARK   14  A    between atoms: N_16  and  C_19
REMARK   15  A    between atoms: N_16  and  C_21
REMARK   16  A    between atoms: C_17  and  C_18
REMARK   17  A    between atoms: C_19  and  C_20
REMARK   18  A    between atoms: C_21  and  C_22
REMARK   19  A    between atoms: C_29  and  C_30
REMARK                            x       y       z     vdW  Elec       q    Type
REMARK                         _______ _______ _______ _____ _____    ______ ____
ROOT
ATOM      1  N   UNL     1       1.296  -2.131  -0.755  0.00  0.00    -0.309 N 
ATOM      2  C   UNL     1       0.238  -1.313  -1.284  0.00  0.00    +0.299 C 
ATOM      3  O   UNL     1       0.511  -0.220  -1.852  0.00  0.00    -0.265 OA
ATOM      4  H   UNL     1       1.063  -3.048  -0.312  0.00  0.00    +0.149 HD
ENDROOT
BRANCH   2   5
ATOM      5  C   UNL     1      -1.168  -1.748  -1.181  0.00  0.00    +0.299 C 
ATOM      6  O   UNL     1      -1.436  -2.878  -0.692  0.00  0.00    -0.265 OA
ATOM      7  N   UNL     1      -2.228  -0.895  -1.639  0.00  0.00    -0.309 N 
ATOM      8  H   UNL     1      -1.995   0.033  -2.060  0.00  0.00    +0.149 HD
BRANCH   7   9
ATOM      9  C   UNL     1      -3.636  -1.290  -1.597  0.00  0.00    +0.086 C 
BRANCH   9  10
ATOM     10  C   UNL     1      -4.141  -1.378  -0.133  0.00  0.00    -0.056 C 
BRANCH  10  11
ATOM     11  N   UNL     1      -5.605  -1.075   0.088  0.00  0.00    +0.383 N 
BRANCH  11  12
ATOM     12  C   UNL     1      -5.891  -1.536   1.503  0.00  0.00    -0.078 C 
ATOM     13  C   UNL     1      -7.141  -0.980   2.226  0.00  0.00    -0.016 C 
ENDBRANCH  11  12
BRANCH  11  14
ATOM     14  C   UNL     1      -6.374  -1.939  -0.883  0.00  0.00    -0.078 C 
ATOM     15  C   UNL     1      -7.900  -1.958  -0.724  0.00  0.00    -0.016 C 
ENDBRANCH  11  14
BRANCH  11  16
ATOM     16  C   UNL     1      -5.930   0.397  -0.136  0.00  0.00    -0.038 C 
BRANCH  16  17
ATOM     17  C   UNL     1      -4.761   1.389  -0.186  0.00  0.00    -0.045 A 
ATOM     18  C   UNL     1      -4.384   1.932  -1.433  0.00  0.00    +0.003 A 
ATOM     19  C   UNL     1      -3.320   2.829  -1.535  0.00  0.00    +0.000 A 
ATOM     20  C   UNL     1      -2.630   3.226  -0.392  0.00  0.00    +0.001 A 
ATOM     21  C   UNL     1      -3.019   2.747   0.857  0.00  0.00    +0.020 A 
ATOM     22  C   UNL     1      -4.088   1.848   0.974  0.00  0.00    +0.042 A 
ATOM     23 CL   UNL     1      -4.558   1.375   2.596  0.00  0.00    -0.083 Cl
ENDBRANCH  16  17
ENDBRANCH  11  16
ENDBRANCH  10  11
ENDBRANCH   9  10
ENDBRANCH   7   9
ENDBRANCH   2   5
BRANCH   1  24
ATOM     24  C   UNL     1       2.708  -1.778  -0.898  0.00  0.00    +0.086 C 
BRANCH  24  25
ATOM     25  C   UNL     1       3.080  -0.642   0.086  0.00  0.00    -0.056 C 
BRANCH  25  26
ATOM     26  N   UNL     1       4.548  -0.300   0.160  0.00  0.00    +0.383 N 
BRANCH  26  28
ATOM     27  C   UNL     1       6.206  -2.292  -0.185  0.00  0.00    -0.016 C 
ATOM     28  C   UNL     1       5.273  -1.501   0.750  0.00  0.00    -0.078 C 
ENDBRANCH  26  28
BRANCH  26  29
ATOM     29  C   UNL     1       5.054   0.091  -1.207  0.00  0.00    -0.078 C 
ATOM     30  C   UNL     1       4.311   1.260  -1.879  0.00  0.00    -0.016 C 
ENDBRANCH  26  29
BRANCH  26  31
ATOM     31  C   UNL     1       4.673   0.856   1.133  0.00  0.00    -0.038 C 
BRANCH  31  32
ATOM     32  C   UNL     1       5.920   1.753   1.011  0.00  0.00    -0.045 A 
ATOM     33  C   UNL     1       7.221   1.205   1.067  0.00  0.00    +0.003 A 
ATOM     34  C   UNL     1       8.352   2.020   0.977  0.00  0.00    +0.000 A 
ATOM     35  C   UNL     1       8.215   3.399   0.858  0.00  0.00    +0.001 A 
ATOM     36  C   UNL     1       6.947   3.972   0.841  0.00  0.00    +0.020 A 
ATOM     37  C   UNL     1       5.802   3.170   0.931  0.00  0.00    +0.042 A 
ATOM     38 CL   UNL     1       4.252   4.013   0.965  0.00  0.00    -0.083 Cl
ENDBRANCH  31  32
ENDBRANCH  26  31
ENDBRANCH  25  26
ENDBRANCH  24  25
ENDBRANCH   1  24
TORSDOF 15
