REMARK  Name = 
REMARK  8 active torsions:
REMARK  status: ('A' for Active; 'I' for Inactive)
REMARK    1  A    between atoms: C_13  and  C_14
REMARK    2  A    between atoms: C_17  and  O_18
REMARK    3  A    between atoms: C_20  and  C_21
REMARK    4  A    between atoms: C_22  and  C_30
REMARK    5  A    between atoms: C_30  and  C_32
REMARK    6  A    between atoms: C_32  and  O_33
REMARK    7  A    between atoms: O_33  and  C_34
REMARK    8  A    between atoms: C_34  and  C_35
REMARK                            x       y       z     vdW  Elec       q    Type
REMARK                         _______ _______ _______ _____ _____    ______ ____
ROOT
ATOM      1  C   UNL     1      -1.743  -1.616   0.103  0.00  0.00    +0.162 C 
ATOM      2  C   UNL     1      -0.340  -1.996   0.629  0.00  0.00    +0.039 C 
ATOM      3  C   UNL     1       0.496  -0.751   0.376  0.00  0.00    +0.007 C 
ATOM      4  C   UNL     1       2.039  -0.851   0.391  0.00  0.00    +0.034 C 
ATOM      5  C   UNL     1       2.521  -1.488   1.713  0.00  0.00    +0.011 C 
ATOM      6  C   UNL     1       4.046  -1.539   1.789  0.00  0.00    +0.032 C 
ATOM      7  C   UNL     1       4.616  -0.160   1.569  0.00  0.00    -0.053 C 
ATOM      8  C   UNL     1       5.442   0.366   2.488  0.00  0.00    +0.051 C 
ATOM      9  C   UNL     1       5.964   1.724   2.338  0.00  0.00    +0.179 C 
ATOM     10  O   UNL     1       6.750   2.199   3.200  0.00  0.00    -0.288 OA
ATOM     11  C   UNL     1       5.556   2.530   1.192  0.00  0.00    +0.047 C 
ATOM     12  C   UNL     1       4.742   2.027   0.263  0.00  0.00    -0.009 C 
ATOM     13  C   UNL     1       4.222   0.587   0.283  0.00  0.00    +0.044 C 
ATOM     14  C   UNL     1       4.907  -0.141  -0.901  0.00  0.00    +0.023 C 
ATOM     15  C   UNL     1       2.639   0.596   0.214  0.00  0.00    +0.153 C 
ATOM     16  F   UNL     1       2.219   1.346   1.310  0.00  0.00    -0.238 F 
ATOM     17  C   UNL     1       2.034   1.324  -1.044  0.00  0.00    +0.154 C 
ATOM     18  C   UNL     1       0.478   1.266  -1.088  0.00  0.00    +0.044 C 
ATOM     19  C   UNL     1      -0.068  -0.178  -0.931  0.00  0.00    +0.012 C 
ATOM     20  C   UNL     1       0.292  -1.039  -2.190  0.00  0.00    +0.015 C 
ATOM     21  C   UNL     1      -1.602  -0.293  -0.661  0.00  0.00    +0.165 C 
ATOM     22  O   UNL     1      -2.018   0.690   0.244  0.00  0.00    -0.331 OA
ATOM     23  C   UNL     1      -2.774   0.027   1.235  0.00  0.00    +0.172 C 
ATOM     24  C   UNL     1      -4.255   0.380   1.111  0.00  0.00    +0.065 C 
ATOM     25  C   UNL     1      -4.811   0.415   2.532  0.00  0.00    +0.005 C 
ATOM     26  C   UNL     1      -3.617   0.361   3.481  0.00  0.00    +0.005 C 
ATOM     27  C   UNL     1      -2.376   0.524   2.618  0.00  0.00    +0.065 C 
ATOM     28  O   UNL     1      -2.608  -1.374   1.170  0.00  0.00    -0.342 OA
ENDROOT
BRANCH  17  29
ATOM     29  O   UNL     1       2.567   0.817  -2.238  0.00  0.00    -0.389 OA
ATOM     30  H   UNL     1       2.399   1.495  -2.944  0.00  0.00    +0.210 HD
ENDBRANCH  17  29
BRANCH  21  31
ATOM     31  C   UNL     1      -2.458  -0.147  -1.920  0.00  0.00    +0.205 C 
ATOM     32  O   UNL     1      -2.376   0.894  -2.557  0.00  0.00    -0.291 OA
BRANCH  31  33
ATOM     33  C   UNL     1      -3.390  -1.230  -2.412  0.00  0.00    +0.309 C 
BRANCH  33  34
ATOM     34  O   UNL     1      -4.218  -0.763  -3.477  0.00  0.00    -0.457 OA
BRANCH  34  35
ATOM     35  C   UNL     1      -5.293   0.112  -3.285  0.00  0.00    +0.304 C 
ATOM     36  C   UNL     1      -6.091   0.557  -4.464  0.00  0.00    +0.136 C 
ATOM     37  O   UNL     1      -5.601   0.514  -2.130  0.00  0.00    -0.251 OA
ENDBRANCH  34  35
ENDBRANCH  33  34
ENDBRANCH  31  33
ENDBRANCH  21  31
TORSDOF 5
