REMARK  Name = 
REMARK  5 active torsions:
REMARK  status: ('A' for Active; 'I' for Inactive)
REMARK    1  A    between atoms: N_2  and  CA_3
REMARK    2  A    between atoms: CA_7  and  C_8
REMARK    3  A    between atoms: C_8  and  O_9
REMARK    4  A    between atoms: C_11  and  C_12
REMARK    5  A    between atoms: C_11  and  C_13
REMARK                            x       y       z     vdW  Elec       q    Type
REMARK                         _______ _______ _______ _____ _____    ______ ____
ROOT
ATOM      1  CA  UNL     1      -0.114  -0.985  -2.061  0.00  0.00    +0.223 C 
ATOM      2  C   UNL     1      -1.083  -0.058  -2.719  0.00  0.00    +0.244 C 
ATOM      3  O   UNL     1      -0.989   1.012  -3.375  0.00  0.00    -0.273 OA
ATOM      4  N   UNL     1      -2.204  -0.879  -2.204  0.00  0.00    -0.270 N 
ATOM      5  CA  UNL     1      -3.435  -0.549  -1.532  0.00  0.00    +0.201 C 
ATOM      6  C   UNL     1      -3.089  -0.718  -0.017  0.00  0.00    +0.042 C 
ATOM      7  C   UNL     1      -4.263  -1.237   0.835  0.00  0.00    +0.025 C 
ATOM      8  C   UNL     1      -2.624   0.634   0.556  0.00  0.00    +0.025 C 
ATOM      9  S   UNL     1      -1.667  -1.903   0.125  0.00  0.00    -0.127 S 
ATOM     10  C   UNL     1      -1.245  -1.789  -1.656  0.00  0.00    +0.169 C 
ENDROOT
BRANCH   1  12
ATOM     11  C   UNL     1       1.521  -0.888  -0.281  0.00  0.00    +0.179 C 
ATOM     12  N   UNL     1       0.578  -0.315  -0.964  0.00  0.00    -0.261 NA
ATOM     13  N   UNL     1       2.165  -0.201   0.807  0.00  0.00    -0.321 N 
ATOM     14  C   UNL     1       3.328  -0.828   1.449  0.00  0.00    +0.106 C 
ATOM     15  C   UNL     1       4.424   0.186   1.827  0.00  0.00    +0.019 C 
ATOM     16  C   UNL     1       4.666   1.259   0.747  0.00  0.00    +0.002 C 
ATOM     17  C   UNL     1       3.749   2.485   0.914  0.00  0.00    +0.002 C 
ATOM     18  C   UNL     1       2.290   2.231   0.504  0.00  0.00    +0.019 C 
ATOM     19  C   UNL     1       1.647   1.086   1.291  0.00  0.00    +0.106 C 
ENDBRANCH   1  12
BRANCH   5  20
ATOM     20  C   UNL     1      -4.531  -1.464  -2.023  0.00  0.00    +0.327 C 
ATOM     21  OXT UNL     1      -4.286  -2.673  -2.279  0.00  0.00    -0.249 OA
BRANCH  20  22
ATOM     22  O   UNL     1      -5.837  -0.996  -2.143  0.00  0.00    -0.479 OA
ATOM     23  H   UNL     1      -6.074  -0.037  -1.917  0.00  0.00    +0.295 HD
ENDBRANCH  20  22
ENDBRANCH   5  20
TORSDOF 3
