REMARK  Name = 
REMARK  10 active torsions:
REMARK  status: ('A' for Active; 'I' for Inactive)
REMARK    1  A    between atoms: N_1  and  C_2
REMARK    2  A    between atoms: C_2  and  C_3
REMARK    3  A    between atoms: C_3  and  C_4
REMARK    4  A    between atoms: C_4  and  N_5
REMARK    5  A    between atoms: N_5  and  C_6
REMARK    6  A    between atoms: C_6  and  C_7
REMARK    7  A    between atoms: C_7  and  S_8
REMARK    8  A    between atoms: S_8  and  P_9
REMARK    9  A    between atoms: P_9  and  O_10
REMARK   10  A    between atoms: P_9  and  O_11
REMARK                            x       y       z     vdW  Elec       q    Type
REMARK                         _______ _______ _______ _____ _____    ______ ____
ROOT
ATOM      1  C   UNL     1       0.158   0.594   0.965  0.00  0.00    +0.092 C 
ENDROOT
BRANCH   1   2
ATOM      2  N   UNL     1      -0.365   0.979  -0.353  0.00  0.00    -0.315 NA
ATOM      3  H   UNL     1      -0.178   2.001  -0.480  0.00  0.00    +0.122 HD
BRANCH   2   4
ATOM      4  C   UNL     1      -1.818   0.774  -0.436  0.00  0.00    +0.082 C 
BRANCH   4   5
ATOM      5  C   UNL     1      -2.129  -0.645  -0.928  0.00  0.00    +0.030 C 
BRANCH   5   6
ATOM      6  C   UNL     1      -3.633  -0.868  -1.127  0.00  0.00    +0.079 C 
BRANCH   6   7
ATOM      7  N   UNL     1      -4.342  -0.787   0.147  0.00  0.00    -0.330 NA
ATOM      8  H   UNL     1      -5.364  -0.882  -0.052  0.00  0.00    +0.118 HD
ATOM      9  H   UNL     1      -4.074  -1.617   0.725  0.00  0.00    +0.118 HD
ENDBRANCH   6   7
ENDBRANCH   5   6
ENDBRANCH   4   5
ENDBRANCH   2   4
ENDBRANCH   1   2
BRANCH   1  10
ATOM     10  C   UNL     1       1.685   0.609   0.956  0.00  0.00    +0.096 C 
BRANCH  10  11
ATOM     11  S   UNL     1       2.327  -0.656  -0.194  0.00  0.00    -0.040 S 
BRANCH  11  12
ATOM     12  P   UNL     1       4.360  -0.191   0.179  0.00  0.00    +0.386 P 
ATOM     13  O   UNL     1       4.638   1.240  -0.224  0.00  0.00    -0.246 OA
BRANCH  12  14
ATOM     14  O   UNL     1       4.697  -0.392   1.825  0.00  0.00    -0.316 OA
ATOM     15  H   UNL     1       5.669  -0.220   1.907  0.00  0.00    +0.221 HD
ENDBRANCH  12  14
BRANCH  12  16
ATOM     16  O   UNL     1       5.345  -1.230  -0.724  0.00  0.00    -0.316 OA
ATOM     17  H   UNL     1       5.061  -1.095  -1.663  0.00  0.00    +0.221 HD
ENDBRANCH  12  16
ENDBRANCH  11  12
ENDBRANCH  10  11
ENDBRANCH   1  10
TORSDOF 10
