REMARK  Name = 
REMARK  22 active torsions:
REMARK  status: ('A' for Active; 'I' for Inactive)
REMARK    1  A    between atoms: N_1  and  C_2
REMARK    2  A    between atoms: C_2  and  C_3
REMARK    3  A    between atoms: C_3  and  C_4
REMARK    4  A    between atoms: C_4  and  O_5
REMARK    5  A    between atoms: C_4  and  C_6
REMARK    6  A    between atoms: N_8  and  C_9
REMARK    7  A    between atoms: C_11  and  N_12
REMARK    8  A    between atoms: C_13  and  O_14
REMARK    9  A    between atoms: O_14  and  C_15
REMARK   10  A    between atoms: C_17  and  C_18
REMARK   11  A    between atoms: C_18  and  N_19
REMARK   12  A    between atoms: C_20  and  O_21
REMARK   13  A    between atoms: C_22  and  O_23
REMARK   14  A    between atoms: C_24  and  O_25
REMARK   15  A    between atoms: C_26  and  O_27
REMARK   16  A    between atoms: C_28  and  O_29
REMARK   17  A    between atoms: O_29  and  C_30
REMARK   18  A    between atoms: C_32  and  C_33
REMARK   19  A    between atoms: C_33  and  O_34
REMARK   20  A    between atoms: C_35  and  O_36
REMARK   21  A    between atoms: C_37  and  N_38
REMARK   22  A    between atoms: C_39  and  O_40
REMARK                            x       y       z     vdW  Elec       q    Type
REMARK                         _______ _______ _______ _____ _____    ______ ____
ROOT
ATOM      1  C   UNL     1      -0.501   2.101   0.192  0.00  0.00    +0.106 C 
ATOM      2  C   UNL     1      -0.202   3.349  -0.647  0.00  0.00    +0.046 C 
ATOM      3  C   UNL     1       0.912   3.067  -1.689  0.00  0.00    +0.084 C 
ATOM      4  C   UNL     1       0.886   1.608  -2.236  0.00  0.00    +0.169 C 
ATOM      5  C   UNL     1      -0.524   0.983  -2.143  0.00  0.00    +0.175 C 
ATOM      6  C   UNL     1      -1.061   0.943  -0.679  0.00  0.00    +0.173 C 
ENDROOT
BRANCH   1   9
ATOM      7  C   UNL     1      -1.154   2.304   2.652  0.00  0.00    +0.242 C 
ATOM      8  O   UNL     1      -0.003   1.952   3.029  0.00  0.00    -0.273 OA
ATOM      9  N   UNL     1      -1.455   2.432   1.254  0.00  0.00    -0.308 N 
ATOM     10  H   UNL     1      -2.400   2.783   0.978  0.00  0.00    +0.149 HD
BRANCH   7  11
ATOM     11  C   UNL     1      -2.203   2.661   3.675  0.00  0.00    +0.201 C 
BRANCH  11  12
ATOM     12  O   UNL     1      -1.955   2.005   4.896  0.00  0.00    -0.383 OA
ATOM     13  H   UNL     1      -1.142   2.405   5.300  0.00  0.00    +0.210 HD
ENDBRANCH  11  12
BRANCH  11  14
ATOM     14  C   UNL     1      -2.279   4.189   3.858  0.00  0.00    +0.056 C 
BRANCH  14  15
ATOM     15  C   UNL     1      -3.409   4.588   4.823  0.00  0.00    +0.080 C 
BRANCH  15  16
ATOM     16  N   UNL     1      -3.532   6.042   4.924  0.00  0.00    -0.330 NA
ATOM     17  H   UNL     1      -2.617   6.435   5.245  0.00  0.00    +0.118 HD
ATOM     18  H   UNL     1      -3.726   6.428   3.972  0.00  0.00    +0.118 HD
ENDBRANCH  15  16
ENDBRANCH  14  15
ENDBRANCH  11  14
ENDBRANCH   7  11
ENDBRANCH   1   9
BRANCH   3  19
ATOM     19  N   UNL     1       0.847   4.031  -2.791  0.00  0.00    -0.325 NA
ATOM     20  H   UNL     1      -0.087   3.969  -3.255  0.00  0.00    +0.119 HD
ATOM     21  H   UNL     1       0.938   4.997  -2.396  0.00  0.00    +0.119 HD
ENDBRANCH   3  19
BRANCH   5  22
ATOM     22  O   UNL     1      -1.422   1.703  -2.951  0.00  0.00    -0.387 OA
ATOM     23  H   UNL     1      -1.280   1.399  -3.886  0.00  0.00    +0.210 HD
ENDBRANCH   5  22
BRANCH   4  24
ATOM     24  O   UNL     1       1.771   0.807  -1.465  0.00  0.00    -0.341 OA
BRANCH  24  25
ATOM     25  C   UNL     1       2.950   0.437  -2.164  0.00  0.00    +0.282 C 
ATOM     26  O   UNL     1       4.035   0.412  -1.247  0.00  0.00    -0.342 OA
ATOM     27  C   UNL     1       4.210  -0.797  -0.504  0.00  0.00    +0.166 C 
ATOM     28  C   UNL     1       2.986  -1.765  -0.468  0.00  0.00    +0.176 C 
ATOM     29  C   UNL     1       2.360  -2.000  -1.870  0.00  0.00    +0.179 C 
ATOM     30  C   UNL     1       2.767  -0.916  -2.885  0.00  0.00    +0.201 C 
BRANCH  28  31
ATOM     31  O   UNL     1       2.008  -1.235   0.392  0.00  0.00    -0.387 OA
ATOM     32  H   UNL     1       2.305  -1.415   1.322  0.00  0.00    +0.210 HD
ENDBRANCH  28  31
BRANCH  29  33
ATOM     33  O   UNL     1       2.663  -3.281  -2.364  0.00  0.00    -0.386 OA
ATOM     34  H   UNL     1       3.650  -3.362  -2.420  0.00  0.00    +0.210 HD
ENDBRANCH  29  33
BRANCH  30  35
ATOM     35  O   UNL     1       1.787  -0.826  -3.888  0.00  0.00    -0.384 OA
ATOM     36  H   UNL     1       2.196  -0.335  -4.649  0.00  0.00    +0.210 HD
ENDBRANCH  30  35
BRANCH  27  37
ATOM     37  C   UNL     1       5.511  -1.487  -0.959  0.00  0.00    +0.112 C 
BRANCH  37  38
ATOM     38  N   UNL     1       5.870  -2.582  -0.061  0.00  0.00    -0.328 NA
ATOM     39  H   UNL     1       6.721  -3.051  -0.451  0.00  0.00    +0.118 HD
ATOM     40  H   UNL     1       6.150  -2.172   0.862  0.00  0.00    +0.118 HD
ENDBRANCH  37  38
ENDBRANCH  27  37
ENDBRANCH  24  25
ENDBRANCH   4  24
BRANCH   6  41
ATOM     41  O   UNL     1      -0.685  -0.277  -0.050  0.00  0.00    -0.341 OA
BRANCH  41  42
ATOM     42  C   UNL     1      -1.667  -1.298  -0.155  0.00  0.00    +0.281 C 
ATOM     43  O   UNL     1      -1.439  -1.996  -1.374  0.00  0.00    -0.341 OA
ATOM     44  C   UNL     1      -2.091  -3.255  -1.453  0.00  0.00    +0.177 C 
ATOM     45  C   UNL     1      -1.589  -4.247  -0.360  0.00  0.00    +0.165 C 
ATOM     46  C   UNL     1      -0.825  -3.512   0.762  0.00  0.00    +0.116 C 
ATOM     47  C   UNL     1      -1.566  -2.210   1.103  0.00  0.00    +0.189 C 
BRANCH  46  48
ATOM     48  N   UNL     1      -0.723  -4.369   1.948  0.00  0.00    -0.323 NA
ATOM     49  H   UNL     1      -0.243  -5.259   1.675  0.00  0.00    +0.119 HD
ATOM     50  H   UNL     1      -0.085  -3.909   2.638  0.00  0.00    +0.119 HD
ENDBRANCH  46  48
BRANCH  45  51
ATOM     51  O   UNL     1      -0.738  -5.210  -0.930  0.00  0.00    -0.388 OA
ATOM     52  H   UNL     1      -1.312  -5.822  -1.461  0.00  0.00    +0.210 HD
ENDBRANCH  45  51
BRANCH  47  53
ATOM     53  O   UNL     1      -0.906  -1.531   2.147  0.00  0.00    -0.385 OA
ATOM     54  H   UNL     1      -1.391  -1.730   2.991  0.00  0.00    +0.210 HD
ENDBRANCH  47  53
BRANCH  44  55
ATOM     55  C   UNL     1      -3.626  -3.108  -1.486  0.00  0.00    +0.190 C 
BRANCH  55  56
ATOM     56  O   UNL     1      -4.208  -4.301  -1.933  0.00  0.00    -0.392 OA
ATOM     57  H   UNL     1      -5.185  -4.133  -1.977  0.00  0.00    +0.210 HD
ENDBRANCH  55  56
ENDBRANCH  44  55
ENDBRANCH  41  42
ENDBRANCH   6  41
TORSDOF 22
