REMARK  Name = 
REMARK  3 active torsions:
REMARK  status: ('A' for Active; 'I' for Inactive)
REMARK    1  A    between atoms: N_4  and  C_5
REMARK    2  A    between atoms: C_5  and  C_7
REMARK    3  A    between atoms: C_8  and  N_9
REMARK                            x       y       z     vdW  Elec       q    Type
REMARK                         _______ _______ _______ _____ _____    ______ ____
ROOT
ATOM      1  C   UNL     1       0.509  -0.204  -0.010  0.00  0.00    +0.169 A 
ATOM      2  C   UNL     1       1.630  -1.048   0.182  0.00  0.00    +0.149 A 
ATOM      3  N   UNL     1       2.874  -0.543  -0.030  0.00  0.00    -0.213 NA
ATOM      4  C   UNL     1       3.080   0.735  -0.441  0.00  0.00    +0.156 A 
ATOM      5  N   UNL     1       4.417   1.199  -0.644  0.00  0.00    -0.341 N 
ATOM      6  C   UNL     1       1.969   1.561  -0.668  0.00  0.00    +0.169 A 
ATOM      7 CL   UNL     1       2.132   3.220  -1.220  0.00  0.00    -0.058 Cl
ATOM      8  N   UNL     1       0.724   1.069  -0.442  0.00  0.00    -0.224 NA
ATOM      9  H   UNL     1       5.222   0.557  -0.472  0.00  0.00    +0.144 HD
ATOM     10  H   UNL     1       4.624   2.172  -0.961  0.00  0.00    +0.144 HD
ENDROOT
BRANCH   2  11
ATOM     11  N   UNL     1       1.504  -2.430   0.531  0.00  0.00    -0.341 N 
ATOM     12  H   UNL     1       2.358  -2.979   0.775  0.00  0.00    +0.144 HD
ATOM     13  H   UNL     1       0.618  -2.962   0.393  0.00  0.00    +0.144 HD
ENDBRANCH   2  11
BRANCH   1  14
ATOM     14  C   UNL     1      -0.884  -0.608   0.273  0.00  0.00    +0.292 C 
ATOM     15  O   UNL     1      -1.130  -1.512   1.115  0.00  0.00    -0.266 OA
BRANCH  14  19
ATOM     16  N   UNL     1      -4.119   0.747  -1.006  0.00  0.00    -0.372 N 
ATOM     17  C   UNL     1      -3.204   0.135  -0.097  0.00  0.00    +0.185 C 
ATOM     18  N   UNL     1      -3.686  -0.312   1.177  0.00  0.00    -0.372 N 
ATOM     19  N   UNL     1      -1.949   0.044  -0.437  0.00  0.00    -0.142 NA
ATOM     20  H   UNL     1      -3.792   1.096  -1.935  0.00  0.00    +0.159 HD
ATOM     21  H   UNL     1      -5.127   0.853  -0.755  0.00  0.00    +0.159 HD
ATOM     22  H   UNL     1      -4.714  -0.349   1.355  0.00  0.00    +0.159 HD
ATOM     23  H   UNL     1      -3.057  -0.441   1.998  0.00  0.00    +0.159 HD
ENDBRANCH  14  19
ENDBRANCH   1  14
TORSDOF 3
