REMARK  Name = 
REMARK  6 active torsions:
REMARK  status: ('A' for Active; 'I' for Inactive)
REMARK    1  A    between atoms: N_1  and  C_2
REMARK    2  A    between atoms: C_2  and  C_3
REMARK    3  A    between atoms: C_3  and  C_5
REMARK    4  A    between atoms: C_5  and  C_6
REMARK    5  A    between atoms: C_6  and  C_7
REMARK    6  A    between atoms: C_7  and  O_8
REMARK                            x       y       z     vdW  Elec       q    Type
REMARK                         _______ _______ _______ _____ _____    ______ ____
ROOT
ATOM      1  C   UNL     1      -0.600  -0.664   0.895  0.00  0.00    +0.147 C 
ATOM      2  O   UNL     1      -0.326  -0.539   2.080  0.00  0.00    -0.296 OA
ENDROOT
BRANCH   1   3
ATOM      3  C   UNL     1      -1.875  -0.062   0.369  0.00  0.00    +0.152 C 
BRANCH   3   4
ATOM      4  N   UNL     1      -1.844   1.388   0.525  0.00  0.00    -0.324 NA
ATOM      5  H   UNL     1      -2.782   1.757   0.246  0.00  0.00    +0.119 HD
ATOM      6  H   UNL     1      -1.157   1.775  -0.163  0.00  0.00    +0.119 HD
ENDBRANCH   3   4
ENDBRANCH   1   3
BRANCH   1   7
ATOM      7  C   UNL     1       0.328  -1.443  -0.003  0.00  0.00    +0.087 C 
BRANCH   7   8
ATOM      8  C   UNL     1       1.708  -0.784  -0.111  0.00  0.00    +0.128 C 
BRANCH   8   9
ATOM      9  C   UNL     1       1.632   0.551  -0.787  0.00  0.00    +0.305 C 
ATOM     10  O   UNL     1       1.496   0.619  -2.038  0.00  0.00    -0.251 OA
BRANCH   9  11
ATOM     11  O   UNL     1       1.681   1.716  -0.028  0.00  0.00    -0.481 OA
ATOM     12  H   UNL     1       1.615   2.626  -0.468  0.00  0.00    +0.295 HD
ENDBRANCH   9  11
ENDBRANCH   8   9
ENDBRANCH   7   8
ENDBRANCH   1   7
TORSDOF 6
