REMARK  Name = 
REMARK  7 active torsions:
REMARK  status: ('A' for Active; 'I' for Inactive)
REMARK    1  A    between atoms: N_1  and  C_2
REMARK    2  A    between atoms: C_2  and  C_3
REMARK    3  A    between atoms: C_3  and  N_4
REMARK    4  A    between atoms: C_5  and  N_6
REMARK    5  A    between atoms: N_14  and  C_15
REMARK    6  A    between atoms: C_18  and  N_19
REMARK    7  A    between atoms: N_27  and  C_28
REMARK                            x       y       z     vdW  Elec       q    Type
REMARK                         _______ _______ _______ _____ _____    ______ ____
ROOT
ATOM      1  C   UNL     1       0.749  -0.529   0.426  0.00  0.00    +0.092 C 
ENDROOT
BRANCH   1   2
ATOM      2  N   UNL     1       1.630   0.617   0.203  0.00  0.00    -0.329 NA
ATOM      3  H   UNL     1       1.847   0.686  -0.818  0.00  0.00    +0.118 HD
ATOM      4  H   UNL     1       1.131   1.492   0.485  0.00  0.00    +0.118 HD
ENDBRANCH   1   2
BRANCH   1   5
ATOM      5  C   UNL     1      -0.529  -0.443  -0.421  0.00  0.00    +0.092 C 
BRANCH   5   6
ATOM      6  N   UNL     1      -1.344   0.699  -0.018  0.00  0.00    -0.329 NA
ATOM      7  H   UNL     1      -2.164   0.749  -0.665  0.00  0.00    +0.118 HD
ATOM      8  H   UNL     1      -1.729   0.506   0.935  0.00  0.00    +0.118 HD
ENDBRANCH   5   6
ENDBRANCH   1   5
TORSDOF 3
REMARK  Name = 
REMARK  7 active torsions:
REMARK  status: ('A' for Active; 'I' for Inactive)
REMARK    1  A    between atoms: N_1  and  C_2
REMARK    2  A    between atoms: C_2  and  C_3
REMARK    3  A    between atoms: C_3  and  N_4
REMARK    4  A    between atoms: C_5  and  N_6
REMARK    5  A    between atoms: N_14  and  C_15
REMARK    6  A    between atoms: C_18  and  N_19
REMARK    7  A    between atoms: N_27  and  C_28
REMARK                            x       y       z     vdW  Elec       q    Type
REMARK                         _______ _______ _______ _____ _____    ______ ____
ROOT
ATOM      1  C   UNL     1      -1.199  -2.436   0.001  0.00  0.00    +0.155 C 
ATOM      2  N   UNL     1      -0.500  -1.144   0.022  0.00  0.00    -0.280 N 
ATOM      3  C   UNL     1      -1.194   0.027   0.002  0.00  0.00    +0.168 A 
ATOM      4  C   UNL     1      -0.578   1.227   0.001  0.00  0.00    +0.149 A 
ATOM      5  N   UNL     1      -1.497   2.201  -0.004  0.00  0.00    -0.339 N 
ATOM      6  C   UNL     1      -2.675   1.532  -0.009  0.00  0.00    +0.199 A 
ATOM      7  N   UNL     1      -2.532   0.180  -0.005  0.00  0.00    -0.218 NA
ATOM      8  C   UNL     1       0.802   1.315   0.002  0.00  0.00    +0.282 A 
ATOM      9  O   UNL     1       1.367   2.443   0.023  0.00  0.00    -0.265 OA
ATOM     10  N   UNL     1       1.529   0.146  -0.021  0.00  0.00    -0.262 N 
ATOM     11  C   UNL     1       3.000   0.194   0.001  0.00  0.00    +0.157 C 
ATOM     12  C   UNL     1       0.878  -1.078   0.003  0.00  0.00    +0.333 A 
ATOM     13  O   UNL     1       1.551  -2.147   0.007  0.00  0.00    -0.246 OA
ATOM     14  H   UNL     1      -1.346   3.234  -0.006  0.00  0.00    +0.167 HD
ENDROOT
TORSDOF 0
REMARK  Name = 
REMARK  7 active torsions:
REMARK  status: ('A' for Active; 'I' for Inactive)
REMARK    1  A    between atoms: N_1  and  C_2
REMARK    2  A    between atoms: C_2  and  C_3
REMARK    3  A    between atoms: C_3  and  N_4
REMARK    4  A    between atoms: C_5  and  N_6
REMARK    5  A    between atoms: N_14  and  C_15
REMARK    6  A    between atoms: C_18  and  N_19
REMARK    7  A    between atoms: N_27  and  C_28
REMARK                            x       y       z     vdW  Elec       q    Type
REMARK                         _______ _______ _______ _____ _____    ______ ____
ROOT
ATOM      1  C   UNL     1      -1.199  -2.436   0.000  0.00  0.00    +0.155 C 
ATOM      2  N   UNL     1      -0.500  -1.144   0.022  0.00  0.00    -0.280 N 
ATOM      3  C   UNL     1      -1.194   0.027   0.002  0.00  0.00    +0.168 A 
ATOM      4  C   UNL     1      -0.578   1.228   0.002  0.00  0.00    +0.149 A 
ATOM      5  N   UNL     1      -1.496   2.201  -0.003  0.00  0.00    -0.339 N 
ATOM      6  C   UNL     1      -2.675   1.533  -0.008  0.00  0.00    +0.199 A 
ATOM      7  N   UNL     1      -2.532   0.181  -0.005  0.00  0.00    -0.218 NA
ATOM      8  C   UNL     1       0.803   1.315   0.002  0.00  0.00    +0.282 A 
ATOM      9  O   UNL     1       1.367   2.443   0.023  0.00  0.00    -0.265 OA
ATOM     10  N   UNL     1       1.529   0.145  -0.021  0.00  0.00    -0.262 N 
ATOM     11  C   UNL     1       3.000   0.194   0.001  0.00  0.00    +0.157 C 
ATOM     12  C   UNL     1       0.877  -1.078   0.002  0.00  0.00    +0.333 A 
ATOM     13  O   UNL     1       1.551  -2.147   0.006  0.00  0.00    -0.246 OA
ATOM     14  H   UNL     1      -1.345   3.235  -0.005  0.00  0.00    +0.167 HD
ENDROOT
TORSDOF 0
