REMARK  Name = 
REMARK  4 active torsions:
REMARK  status: ('A' for Active; 'I' for Inactive)
REMARK    1  A    between atoms: N_1  and  C_2
REMARK    2  A    between atoms: C_4  and  O_5
REMARK    3  A    between atoms: C_6  and  C_9
REMARK    4  A    between atoms: C_9  and  O_10
REMARK                            x       y       z     vdW  Elec       q    Type
REMARK                         _______ _______ _______ _____ _____    ______ ____
ROOT
ATOM      1  C   UNL     1       1.813   0.006   0.136  0.00  0.00    +0.028 A 
ATOM      2  C   UNL     1       1.050   1.179   0.198  0.00  0.00    +0.069 A 
ATOM      3  C   UNL     1      -0.346   1.132   0.094  0.00  0.00    +0.133 A 
ATOM      4  C   UNL     1      -1.000  -0.120  -0.032  0.00  0.00    +0.100 A 
ATOM      5  C   UNL     1      -0.220  -1.288  -0.114  0.00  0.00    +0.020 A 
ATOM      6  C   UNL     1       1.172  -1.225  -0.030  0.00  0.00    +0.024 A 
ENDROOT
BRANCH   1   7
ATOM      7  N   UNL     1       3.239   0.069   0.232  0.00  0.00    -0.358 N 
ATOM      8  H   UNL     1       3.816  -0.800   0.183  0.00  0.00    +0.142 HD
ATOM      9  H   UNL     1       3.727   0.984   0.353  0.00  0.00    +0.142 HD
ENDBRANCH   1   7
BRANCH   3  10
ATOM     10  O   UNL     1      -1.036   2.347   0.086  0.00  0.00    -0.506 OA
ATOM     11  H   UNL     1      -2.014   2.432  -0.153  0.00  0.00    +0.292 HD
ENDBRANCH   3  10
BRANCH   4  12
ATOM     12  C   UNL     1      -2.473  -0.258  -0.049  0.00  0.00    +0.340 C 
ATOM     13  O   UNL     1      -3.201   0.521   0.622  0.00  0.00    -0.245 OA
BRANCH  12  14
ATOM     14  O   UNL     1      -3.063  -1.298  -0.763  0.00  0.00    -0.477 OA
ATOM     15  H   UNL     1      -4.068  -1.420  -0.768  0.00  0.00    +0.295 HD
ENDBRANCH  12  14
ENDBRANCH   4  12
TORSDOF 4
