REMARK  Name = 
REMARK  5 active torsions:
REMARK  status: ('A' for Active; 'I' for Inactive)
REMARK    1  A    between atoms: N_1  and  C_2
REMARK    2  A    between atoms: C_5  and  C_8
REMARK    3  A    between atoms: N_10  and  C_11
REMARK    4  A    between atoms: C_11  and  C_12
REMARK    5  A    between atoms: C_12  and  O_13
REMARK                            x       y       z     vdW  Elec       q    Type
REMARK                         _______ _______ _______ _____ _____    ______ ____
ROOT
ATOM      1  C   UNL     1       3.065   0.962  -0.158  0.00  0.00    +0.025 A 
ATOM      2  C   UNL     1       2.231   1.697  -1.011  0.00  0.00    +0.023 A 
ATOM      3  C   UNL     1       0.877   1.368  -1.127  0.00  0.00    +0.015 A 
ATOM      4  C   UNL     1       0.337   0.293  -0.398  0.00  0.00    +0.037 A 
ATOM      5  C   UNL     1       1.179  -0.433   0.466  0.00  0.00    +0.015 A 
ATOM      6  C   UNL     1       2.532  -0.101   0.581  0.00  0.00    +0.023 A 
ENDROOT
BRANCH   4   7
ATOM      7  C   UNL     1      -1.102  -0.041  -0.525  0.00  0.00    +0.245 C 
ATOM      8  O   UNL     1      -1.910   0.846  -0.917  0.00  0.00    -0.270 OA
ATOM      9  N   UNL     1      -1.588  -1.361  -0.229  0.00  0.00    -0.301 N 
ATOM     10  H   UNL     1      -0.913  -2.149  -0.113  0.00  0.00    +0.150 HD
BRANCH   9  11
ATOM     11  C   UNL     1      -3.014  -1.672  -0.176  0.00  0.00    +0.225 C 
BRANCH  11  12
ATOM     12  C   UNL     1      -3.629  -1.069   1.046  0.00  0.00    +0.322 C 
ATOM     13  O   UNL     1      -3.434  -1.596   2.174  0.00  0.00    -0.249 OA
BRANCH  12  14
ATOM     14  O   UNL     1      -4.387   0.092   0.942  0.00  0.00    -0.480 OA
ATOM     15  H   UNL     1      -4.798   0.520   1.763  0.00  0.00    +0.295 HD
ENDBRANCH  12  14
ENDBRANCH  11  12
ENDBRANCH   9  11
ENDBRANCH   4   7
BRANCH   1  16
ATOM     16  N   UNL     1       4.450   1.300  -0.039  0.00  0.00    -0.358 N 
ATOM     17  H   UNL     1       5.079   0.759   0.595  0.00  0.00    +0.142 HD
ATOM     18  H   UNL     1       4.856   2.092  -0.585  0.00  0.00    +0.142 HD
ENDBRANCH   1  16
TORSDOF 5
