REMARK  Name = 
REMARK  4 active torsions:
REMARK  status: ('A' for Active; 'I' for Inactive)
REMARK    1  A    between atoms: C_1  and  C_2
REMARK    2  A    between atoms: C_2  and  C_3
REMARK    3  A    between atoms: C_3  and  C_11
REMARK    4  A    between atoms: C_14  and  N_15
REMARK                            x       y       z     vdW  Elec       q    Type
REMARK                         _______ _______ _______ _____ _____    ______ ____
ROOT
ATOM      1  C   UNL     1      -0.795   0.583  -0.212  0.00  0.00    +0.072 C 
ATOM      2  C   UNL     1      -1.654   0.157   1.017  0.00  0.00    +0.030 C 
ATOM      3  C   UNL     1      -1.810  -1.367   1.114  0.00  0.00    +0.097 C 
ATOM      4  C   UNL     1      -2.382  -1.914  -0.159  0.00  0.00    +0.219 C 
ATOM      5  O   UNL     1      -2.991  -3.016  -0.146  0.00  0.00    -0.275 OA
ATOM      6  N   UNL     1      -2.203  -1.215  -1.395  0.00  0.00    -0.256 N 
ATOM      7  C   UNL     1      -1.466   0.013  -1.461  0.00  0.00    +0.230 C 
ATOM      8  O   UNL     1      -1.302   0.569  -2.582  0.00  0.00    -0.274 OA
ATOM      9  H   UNL     1      -2.612  -1.612  -2.271  0.00  0.00    +0.157 HD
ENDROOT
BRANCH   1  10
ATOM     10  C   UNL     1       0.646   0.041  -0.055  0.00  0.00    -0.032 A 
ATOM     11  C   UNL     1       1.251  -0.806  -1.015  0.00  0.00    +0.006 A 
ATOM     12  C   UNL     1       2.554  -1.279  -0.838  0.00  0.00    +0.023 A 
ATOM     13  C   UNL     1       3.290  -0.919   0.295  0.00  0.00    +0.025 A 
ATOM     14  C   UNL     1       2.713  -0.080   1.252  0.00  0.00    +0.023 A 
ATOM     15  C   UNL     1       1.410   0.396   1.080  0.00  0.00    +0.006 A 
BRANCH  13  16
ATOM     16  N   UNL     1       4.623  -1.405   0.473  0.00  0.00    -0.358 N 
ATOM     17  H   UNL     1       5.181  -1.141   1.316  0.00  0.00    +0.142 HD
ATOM     18  H   UNL     1       5.063  -2.032  -0.237  0.00  0.00    +0.142 HD
ENDBRANCH  13  16
ENDBRANCH   1  10
BRANCH   1  20
ATOM     19  C   UNL     1      -2.069   2.857  -0.467  0.00  0.00    +0.005 C 
ATOM     20  C   UNL     1      -0.720   2.142  -0.307  0.00  0.00    +0.017 C 
ENDBRANCH   1  20
TORSDOF 3
