REMARK  Name = 
REMARK  6 active torsions:
REMARK  status: ('A' for Active; 'I' for Inactive)
REMARK    1  A    between atoms: C_1  and  N_2
REMARK    2  A    between atoms: N_2  and  C_3
REMARK    3  A    between atoms: N_2  and  C_4
REMARK    4  A    between atoms: C_5  and  C_6
REMARK    5  A    between atoms: N_7  and  C_8
REMARK    6  A    between atoms: N_9  and  C_12
REMARK                            x       y       z     vdW  Elec       q    Type
REMARK                         _______ _______ _______ _____ _____    ______ ____
ROOT
ATOM      1  C   UNL     1      -1.565  -0.234   0.117  0.00  0.00    +0.117 A 
ATOM      2  C   UNL     1      -1.175   1.101   0.099  0.00  0.00    +0.059 A 
ATOM      3  C   UNL     1      -2.068   2.297   0.257  0.00  0.00    +0.067 C 
ATOM      4  N   UNL     1       0.171   1.153  -0.075  0.00  0.00    -0.282 N 
ATOM      5  C   UNL     1       0.974   2.373  -0.194  0.00  0.00    +0.171 C 
ATOM      6  N   UNL     1       0.648  -0.090  -0.118  0.00  0.00    -0.216 N 
ATOM      7  C   UNL     1      -0.389  -0.945  -0.009  0.00  0.00    +0.293 A 
ATOM      8  O   UNL     1      -0.281  -2.201  -0.021  0.00  0.00    -0.264 OA
ENDROOT
BRANCH   6   9
ATOM      9  C   UNL     1       2.033  -0.460  -0.237  0.00  0.00    +0.067 A 
ATOM     10  C   UNL     1       2.443  -1.349  -1.244  0.00  0.00    +0.028 A 
ATOM     11  C   UNL     1       3.788  -1.718  -1.352  0.00  0.00    +0.002 A 
ATOM     12  C   UNL     1       4.729  -1.208  -0.453  0.00  0.00    +0.000 A 
ATOM     13  C   UNL     1       4.326  -0.331   0.558  0.00  0.00    +0.002 A 
ATOM     14  C   UNL     1       2.982   0.040   0.669  0.00  0.00    +0.028 A 
ENDBRANCH   6   9
BRANCH   1  16
ATOM     15  C   UNL     1      -4.023  -0.175  -0.460  0.00  0.00    +0.129 C 
ATOM     16  N   UNL     1      -2.893  -0.772   0.254  0.00  0.00    -0.330 N 
ATOM     17  C   UNL     1      -3.134  -1.885   1.172  0.00  0.00    +0.129 C 
ENDBRANCH   1  16
TORSDOF 2
