REMARK  Name = 
REMARK  7 active torsions:
REMARK  status: ('A' for Active; 'I' for Inactive)
REMARK    1  A    between atoms: N_1  and  C_2
REMARK    2  A    between atoms: C_2  and  C_3
REMARK    3  A    between atoms: C_3  and  C_4
REMARK    4  A    between atoms: C_4  and  C_5
REMARK    5  A    between atoms: C_5  and  C_6
REMARK    6  A    between atoms: C_6  and  C_7
REMARK    7  A    between atoms: C_7  and  O_8
REMARK                            x       y       z     vdW  Elec       q    Type
REMARK                         _______ _______ _______ _____ _____    ______ ____
ROOT
ATOM      1  C   UNL     1      -0.422   0.807   0.542  0.00  0.00    +0.002 C 
ENDROOT
BRANCH   1   2
ATOM      2  C   UNL     1      -1.417  -0.089   1.302  0.00  0.00    +0.015 C 
BRANCH   2   3
ATOM      3  C   UNL     1      -2.190  -1.061   0.399  0.00  0.00    +0.077 C 
BRANCH   3   4
ATOM      4  N   UNL     1      -2.956  -0.341  -0.614  0.00  0.00    -0.330 NA
ATOM      5  H   UNL     1      -3.415  -1.050  -1.230  0.00  0.00    +0.118 HD
ATOM      6  H   UNL     1      -3.726   0.179  -0.133  0.00  0.00    +0.118 HD
ENDBRANCH   3   4
ENDBRANCH   2   3
ENDBRANCH   1   2
BRANCH   1   7
ATOM      7  C   UNL     1       0.769   0.022  -0.026  0.00  0.00    +0.011 C 
BRANCH   7   8
ATOM      8  C   UNL     1       1.806   0.969  -0.638  0.00  0.00    +0.120 C 
BRANCH   8   9
ATOM      9  C   UNL     1       2.958   0.194  -1.195  0.00  0.00    +0.305 C 
ATOM     10  O   UNL     1       2.938  -0.195  -2.393  0.00  0.00    -0.251 OA
BRANCH   9  11
ATOM     11  O   UNL     1       4.033  -0.135  -0.375  0.00  0.00    -0.481 OA
ATOM     12  H   UNL     1       4.813  -0.674  -0.733  0.00  0.00    +0.295 HD
ENDBRANCH   9  11
ENDBRANCH   8   9
ENDBRANCH   7   8
ENDBRANCH   1   7
TORSDOF 7
