REMARK  Name = 
REMARK  14 active torsions:
REMARK  status: ('A' for Active; 'I' for Inactive)
REMARK    1  A    between atoms: C_1  and  C_2
REMARK    2  A    between atoms: C_2  and  C_3
REMARK    3  A    between atoms: C_3  and  C_4
REMARK    4  A    between atoms: C_4  and  C_5
REMARK    5  A    between atoms: C_6  and  C_7
REMARK    6  A    between atoms: C_7  and  C_9
REMARK    7  A    between atoms: C_13  and  O_14
REMARK    8  A    between atoms: O_14  and  C_15
REMARK    9  A    between atoms: C_15  and  C_16
REMARK   10  A    between atoms: C_16  and  N_17
REMARK   11  A    between atoms: N_17  and  C_18
REMARK   12  A    between atoms: N_17  and  C_20
REMARK   13  A    between atoms: C_18  and  C_19
REMARK   14  A    between atoms: C_20  and  C_21
REMARK                            x       y       z     vdW  Elec       q    Type
REMARK                         _______ _______ _______ _____ _____    ______ ____
ROOT
ATOM      1  C   UNL     1      -2.167   3.379   2.948  0.00  0.00    +0.025 A 
ATOM      2  C   UNL     1      -2.806   3.666   4.156  0.00  0.00    +0.029 A 
ATOM      3  C   UNL     1      -3.453   4.909   4.384  0.00  0.00    +0.057 A 
ATOM      4  I   UNL     1      -4.363   4.923   6.352  0.00  0.00    -0.040 I 
ATOM      5  C   UNL     1      -3.586   5.843   3.315  0.00  0.00    +0.147 A 
ATOM      6  C   UNL     1      -2.867   5.544   2.097  0.00  0.00    +0.057 A 
ATOM      7  I   UNL     1      -3.118   6.671   0.291  0.00  0.00    -0.040 I 
ATOM      8  C   UNL     1      -2.150   4.337   1.929  0.00  0.00    +0.029 A 
ENDROOT
BRANCH   1   9
ATOM      9  C   UNL     1      -1.335   2.173   2.847  0.00  0.00    +0.197 C 
ATOM     10  O   UNL     1      -0.113   2.441   2.806  0.00  0.00    -0.287 OA
BRANCH   9  12
ATOM     11  C   UNL     1      -1.020  -0.325   2.940  0.00  0.00    +0.117 A 
ATOM     12  C   UNL     1      -1.837   0.798   2.869  0.00  0.00    +0.071 A 
ATOM     13  C   UNL     1      -3.155   0.243   2.793  0.00  0.00    +0.031 A 
ATOM     14  C   UNL     1      -4.436   0.744   2.606  0.00  0.00    +0.012 A 
ATOM     15  C   UNL     1      -5.581  -0.040   2.642  0.00  0.00    +0.001 A 
ATOM     16  C   UNL     1      -5.450  -1.410   2.725  0.00  0.00    +0.004 A 
ATOM     17  C   UNL     1      -4.176  -1.995   2.813  0.00  0.00    +0.047 A 
ATOM     18  C   UNL     1      -3.063  -1.137   2.868  0.00  0.00    +0.136 A 
ATOM     19  O   UNL     1      -1.752  -1.485   2.959  0.00  0.00    -0.459 OA
BRANCH  11  20
ATOM     20  C   UNL     1       0.463  -0.469   2.943  0.00  0.00    +0.075 C 
BRANCH  20  21
ATOM     21  C   UNL     1       0.960  -1.520   1.954  0.00  0.00    +0.007 C 
BRANCH  21  23
ATOM     22  C   UNL     1       0.986   0.078  -0.024  0.00  0.00    +0.004 C 
ATOM     23  C   UNL     1       0.497  -1.260   0.515  0.00  0.00    -0.003 C 
ENDBRANCH  21  23
ENDBRANCH  20  21
ENDBRANCH  11  20
ENDBRANCH   9  12
ENDBRANCH   1   9
BRANCH   5  24
ATOM     24  O   UNL     1      -4.650   6.737   3.120  0.00  0.00    -0.489 OA
BRANCH  24  25
ATOM     25  C   UNL     1      -5.884   6.683   3.887  0.00  0.00    +0.244 C 
BRANCH  25  26
ATOM     26  C   UNL     1      -6.961   5.500   3.770  0.00  0.00    +0.125 C 
BRANCH  26  27
ATOM     27  N   UNL     1      -6.446   4.138   3.786  0.00  0.00    -0.300 NA
BRANCH  27  28
ATOM     28  C   UNL     1      -7.287   3.001   4.103  0.00  0.00    +0.081 C 
ATOM     29  C   UNL     1      -8.165   2.663   2.919  0.00  0.00    +0.020 C 
ENDBRANCH  27  28
BRANCH  27  30
ATOM     30  C   UNL     1      -5.623   3.880   2.643  0.00  0.00    +0.081 C 
ATOM     31  C   UNL     1      -5.934   3.862   1.174  0.00  0.00    +0.020 C 
ENDBRANCH  27  30
ENDBRANCH  26  27
ENDBRANCH  25  26
ENDBRANCH  24  25
ENDBRANCH   5  24
TORSDOF 11
