REMARK  Name = 
REMARK  11 active torsions:
REMARK  status: ('A' for Active; 'I' for Inactive)
REMARK    1  A    between atoms: C_1  and  C_2
REMARK    2  A    between atoms: C_2  and  N_3
REMARK    3  A    between atoms: C_7  and  C_8
REMARK    4  A    between atoms: C_8  and  N_9
REMARK    5  A    between atoms: C_10  and  C_12
REMARK    6  A    between atoms: C_14  and  S_21
REMARK    7  A    between atoms: C_15  and  N_16
REMARK    8  A    between atoms: C_18  and  O_19
REMARK    9  A    between atoms: O_19  and  C_20
REMARK   10  A    between atoms: S_21  and  C_24
REMARK   11  A    between atoms: C_24  and  C_25
REMARK                            x       y       z     vdW  Elec       q    Type
REMARK                         _______ _______ _______ _____ _____    ______ ____
ROOT
ATOM      1  C   UNL     1      -1.772  -0.370   0.334  0.00  0.00    +0.080 A 
ATOM      2  C   UNL     1      -3.001   0.296   0.445  0.00  0.00    +0.045 A 
ATOM      3  C   UNL     1      -4.186  -0.271  -0.049  0.00  0.00    +0.110 A 
ATOM      4  C   UNL     1      -4.141  -1.565  -0.619  0.00  0.00    +0.053 A 
ATOM      5  C   UNL     1      -2.914  -2.235  -0.720  0.00  0.00    +0.071 A 
ATOM      6  C   UNL     1      -1.726  -1.655  -0.241  0.00  0.00    +0.134 A 
ENDROOT
BRANCH   1   8
ATOM      7  N   UNL     1       0.698   0.170   0.141  0.00  0.00    -0.310 N 
ATOM      8  C   UNL     1      -0.547   0.288   0.844  0.00  0.00    +0.248 C 
ATOM      9  O   UNL     1      -0.607   0.981   1.897  0.00  0.00    -0.270 OA
ATOM     10  H   UNL     1       0.691  -0.199  -0.837  0.00  0.00    +0.149 HD
BRANCH   7  11
ATOM     11  C   UNL     1       1.962   0.585   0.749  0.00  0.00    +0.123 C 
BRANCH  11  16
ATOM     12  N   UNL     1       4.415   0.656   0.491  0.00  0.00    -0.298 NA
ATOM     13  C   UNL     1       5.420  -0.407   0.287  0.00  0.00    +0.085 C 
ATOM     14  C   UNL     1       4.760  -1.551  -0.466  0.00  0.00    +0.017 C 
ATOM     15  C   UNL     1       3.281  -1.322  -0.286  0.00  0.00    +0.022 C 
ATOM     16  C   UNL     1       3.162   0.190  -0.129  0.00  0.00    +0.074 C 
BRANCH  12  18
ATOM     17  C   UNL     1       5.879   2.614   0.855  0.00  0.00    +0.020 C 
ATOM     18  C   UNL     1       4.848   1.958  -0.061  0.00  0.00    +0.081 C 
ENDBRANCH  12  18
ENDBRANCH  11  16
ENDBRANCH   7  11
ENDBRANCH   1   8
BRANCH   4  19
ATOM     19  N   UNL     1      -5.326  -2.235  -1.076  0.00  0.00    -0.356 N 
ATOM     20  H   UNL     1      -5.258  -3.161  -1.554  0.00  0.00    +0.142 HD
ATOM     21  H   UNL     1      -6.285  -1.877  -0.881  0.00  0.00    +0.142 HD
ENDBRANCH   4  19
BRANCH   3  22
ATOM     22  S   UNL     1      -5.708   0.641   0.057  0.00  0.00    -0.002 S 
ATOM     23  O   UNL     1      -6.588  -0.012   1.085  0.00  0.00    -0.169 OA
ATOM     24  O   UNL     1      -6.399   0.610  -1.279  0.00  0.00    -0.169 OA
BRANCH  22  25
ATOM     25  C   UNL     1      -5.497   2.360   0.516  0.00  0.00    +0.168 C 
ATOM     26  C   UNL     1      -4.819   3.157  -0.594  0.00  0.00    +0.028 C 
ENDBRANCH  22  25
ENDBRANCH   3  22
BRANCH   6  27
ATOM     27  O   UNL     1      -0.500  -2.341  -0.292  0.00  0.00    -0.494 OA
ATOM     28  C   UNL     1      -0.312  -3.632  -0.861  0.00  0.00    +0.277 C 
ENDBRANCH   6  27
TORSDOF 8
