REMARK  Name = 
REMARK  5 active torsions:
REMARK  status: ('A' for Active; 'I' for Inactive)
REMARK    1  A    between atoms: C_1  and  N_2
REMARK    2  A    between atoms: N_2  and  C_3
REMARK    3  A    between atoms: N_2  and  C_4
REMARK    4  A    between atoms: C_4  and  C_5
REMARK    5  A    between atoms: C_5  and  C_6
REMARK                            x       y       z     vdW  Elec       q    Type
REMARK                         _______ _______ _______ _____ _____    ______ ____
ROOT
ATOM      1  C   UNL     1       0.657   1.210  -0.431  0.00  0.00    -0.017 C 
ATOM      2  C   UNL     1      -0.516   0.670  -0.036  0.00  0.00    -0.014 C 
ATOM      3  C   UNL     1      -1.661   1.570   0.172  0.00  0.00    -0.014 A 
ATOM      4  C   UNL     1      -1.667   2.485   1.236  0.00  0.00    +0.009 A 
ATOM      5  C   UNL     1      -2.764   3.329   1.425  0.00  0.00    +0.001 A 
ATOM      6  C   UNL     1      -3.855   3.266   0.555  0.00  0.00    +0.000 A 
ATOM      7  C   UNL     1      -3.848   2.363  -0.513  0.00  0.00    +0.004 A 
ATOM      8  C   UNL     1      -2.744   1.519  -0.717  0.00  0.00    -0.039 A 
ATOM      9  C   UNL     1      -2.715   0.546  -1.864  0.00  0.00    +0.040 C 
ATOM     10  C   UNL     1      -2.913  -0.887  -1.365  0.00  0.00    +0.040 C 
ATOM     11  C   UNL     1      -1.803  -1.503  -0.517  0.00  0.00    -0.039 A 
ATOM     12  C   UNL     1      -1.914  -2.890  -0.296  0.00  0.00    +0.004 A 
ATOM     13  C   UNL     1      -1.020  -3.566   0.533  0.00  0.00    +0.000 A 
ATOM     14  C   UNL     1      -0.009  -2.867   1.183  0.00  0.00    +0.001 A 
ATOM     15  C   UNL     1       0.122  -1.494   0.991  0.00  0.00    +0.009 A 
ATOM     16  C   UNL     1      -0.735  -0.794   0.119  0.00  0.00    -0.014 A 
ENDROOT
BRANCH   1  17
ATOM     17  C   UNL     1       1.870   0.430  -0.867  0.00  0.00    +0.043 C 
BRANCH  17  18
ATOM     18  C   UNL     1       3.035   0.657   0.118  0.00  0.00    +0.088 C 
BRANCH  18  20
ATOM     19  C   UNL     1       3.944  -1.627   0.213  0.00  0.00    +0.104 C 
ATOM     20  N   UNL     1       4.208  -0.216  -0.114  0.00  0.00    -0.308 NA
ATOM     21  C   UNL     1       4.769  -0.078  -1.466  0.00  0.00    +0.104 C 
ENDBRANCH  18  20
ENDBRANCH  17  18
ENDBRANCH   1  17
TORSDOF 3
