REMARK  Name = 
REMARK  6 active torsions:
REMARK  status: ('A' for Active; 'I' for Inactive)
REMARK    1  A    between atoms: C_1  and  C_2
REMARK    2  A    between atoms: C_2  and  C_3
REMARK    3  A    between atoms: C_2  and  C_4
REMARK    4  A    between atoms: C_11  and  N_12
REMARK    5  A    between atoms: C_13  and  C_18
REMARK    6  A    between atoms: C_18  and  O_19
REMARK                            x       y       z     vdW  Elec       q    Type
REMARK                         _______ _______ _______ _____ _____    ______ ____
ROOT
ATOM      1  C   UNL     1      -2.887   0.211  -0.060  0.00  0.00    -0.044 A 
ATOM      2  C   UNL     1      -1.708   0.742   0.493  0.00  0.00    +0.019 A 
ATOM      3  C   UNL     1      -0.452   0.209   0.148  0.00  0.00    +0.065 A 
ATOM      4  C   UNL     1      -0.381  -0.869  -0.762  0.00  0.00    +0.141 A 
ATOM      5  O   UNL     1       0.794  -1.389  -1.103  0.00  0.00    -0.437 OA
ATOM      6  C   UNL     1       1.946  -0.937  -0.619  0.00  0.00    +0.233 A 
ATOM      7  N   UNL     1       3.108  -1.521  -1.005  0.00  0.00    -0.197 NA
ATOM      8  C   UNL     1       4.323  -1.108  -0.553  0.00  0.00    +0.134 A 
ATOM      9  C   UNL     1       4.401  -0.011   0.342  0.00  0.00    +0.099 A 
ATOM     10  C   UNL     1       3.206   0.588   0.772  0.00  0.00    +0.035 A 
ATOM     11  C   UNL     1       1.968   0.134   0.293  0.00  0.00    +0.085 A 
ATOM     12  C   UNL     1       0.747   0.715   0.681  0.00  0.00    +0.202 A 
ATOM     13  O   UNL     1       0.729   1.678   1.498  0.00  0.00    -0.286 OA
ATOM     14  C   UNL     1      -1.552  -1.396  -1.312  0.00  0.00    +0.047 A 
ATOM     15  C   UNL     1      -2.795  -0.863  -0.966  0.00  0.00    +0.007 A 
ENDROOT
BRANCH   1  17
ATOM     16  C   UNL     1      -4.947   1.388  -0.900  0.00  0.00    +0.012 C 
ATOM     17  C   UNL     1      -4.234   0.797   0.322  0.00  0.00    +0.013 C 
ATOM     18  C   UNL     1      -5.113  -0.247   1.022  0.00  0.00    +0.012 C 
ENDBRANCH   1  17
BRANCH   8  19
ATOM     19  N   UNL     1       5.483  -1.842  -0.960  0.00  0.00    -0.342 N 
ATOM     20  H   UNL     1       5.396  -2.575  -1.699  0.00  0.00    +0.144 HD
ATOM     21  H   UNL     1       6.389  -1.785  -0.447  0.00  0.00    +0.144 HD
ENDBRANCH   8  19
BRANCH   9  22
ATOM     22  C   UNL     1       5.685   0.558   0.811  0.00  0.00    +0.340 C 
ATOM     23  O   UNL     1       6.705   0.544   0.071  0.00  0.00    -0.245 OA
BRANCH  22  24
ATOM     24  O   UNL     1       5.756   1.170   2.059  0.00  0.00    -0.477 OA
ATOM     25  H   UNL     1       6.621   1.583   2.388  0.00  0.00    +0.295 HD
ENDBRANCH  22  24
ENDBRANCH   9  22
TORSDOF 4
