REMARK  Name = 
REMARK  14 active torsions:
REMARK  status: ('A' for Active; 'I' for Inactive)
REMARK    1  A    between atoms: C_1  and  C_2
REMARK    2  A    between atoms: C_2  and  O_3
REMARK    3  A    between atoms: O_3  and  C_4
REMARK    4  A    between atoms: C_4  and  C_6
REMARK    5  A    between atoms: C_7  and  C_8
REMARK    6  A    between atoms: C_8  and  O_9
REMARK    7  A    between atoms: O_9  and  C_10
REMARK    8  A    between atoms: C_10  and  C_11
REMARK    9  A    between atoms: C_11  and  N_12
REMARK   10  A    between atoms: C_14  and  C_15
REMARK   11  A    between atoms: C_16  and  C_25
REMARK   12  A    between atoms: C_17  and  C_18
REMARK   13  A    between atoms: C_25  and  O_27
REMARK   14  A    between atoms: O_27  and  C_28
REMARK                            x       y       z     vdW  Elec       q    Type
REMARK                         _______ _______ _______ _____ _____    ______ ____
ROOT
ATOM      1  C   UNL     1       0.250  -0.702  -0.660  0.00  0.00    +0.068 C 
ATOM      2  C   UNL     1       1.294   0.152  -0.563  0.00  0.00    +0.045 C 
ATOM      3  N   UNL     1       1.066   1.563  -0.703  0.00  0.00    -0.319 N 
ATOM      4  C   UNL     1      -0.197   2.113  -1.099  0.00  0.00    +0.016 C 
ATOM      5  C   UNL     1      -0.270   3.598  -1.344  0.00  0.00    +0.061 C 
ATOM      6  C   UNL     1      -1.272   1.302  -1.235  0.00  0.00    +0.065 C 
ATOM      7  C   UNL     1      -1.139  -0.201  -1.032  0.00  0.00    +0.097 C 
ATOM      8  H   UNL     1       1.851   2.223  -0.505  0.00  0.00    +0.152 HD
ENDROOT
BRANCH   7   9
ATOM      9  C   UNL     1      -2.166  -0.695  -0.017  0.00  0.00    -0.017 A 
ATOM     10  C   UNL     1      -3.165  -1.592  -0.444  0.00  0.00    +0.006 A 
ATOM     11  C   UNL     1      -4.111  -2.088   0.455  0.00  0.00    +0.000 A 
ATOM     12  C   UNL     1      -4.077  -1.698   1.792  0.00  0.00    +0.001 A 
ATOM     13  C   UNL     1      -3.097  -0.810   2.236  0.00  0.00    +0.020 A 
ATOM     14  C   UNL     1      -2.141  -0.304   1.347  0.00  0.00    +0.045 A 
ATOM     15 CL   UNL     1      -0.936   0.804   1.992  0.00  0.00    -0.083 Cl
ENDBRANCH   7   9
BRANCH   1  16
ATOM     16  C   UNL     1       0.398  -2.157  -0.413  0.00  0.00    +0.338 C 
ATOM     17  O   UNL     1      -0.224  -2.978  -1.143  0.00  0.00    -0.245 OA
BRANCH  16  18
ATOM     18  O   UNL     1       1.160  -2.611   0.670  0.00  0.00    -0.462 OA
BRANCH  18  20
ATOM     19  C   UNL     1      -0.120  -4.305   1.838  0.00  0.00    +0.048 C 
ATOM     20  C   UNL     1       1.173  -3.968   1.104  0.00  0.00    +0.229 C 
ENDBRANCH  18  20
ENDBRANCH  16  18
ENDBRANCH   1  16
BRANCH   6  21
ATOM     21  C   UNL     1      -2.610   1.820  -1.628  0.00  0.00    +0.337 C 
ATOM     22  O   UNL     1      -3.369   1.102  -2.335  0.00  0.00    -0.245 OA
BRANCH  21  23
ATOM     23  O   UNL     1      -3.051   3.068  -1.177  0.00  0.00    -0.465 OA
ATOM     24  C   UNL     1      -4.331   3.594  -1.505  0.00  0.00    +0.280 C 
ENDBRANCH  21  23
ENDBRANCH   6  21
BRANCH   2  25
ATOM     25  C   UNL     1       2.696  -0.326  -0.246  0.00  0.00    +0.211 C 
BRANCH  25  26
ATOM     26  O   UNL     1       3.649   0.588  -0.751  0.00  0.00    -0.373 OA
BRANCH  26  27
ATOM     27  C   UNL     1       4.944   0.280  -0.267  0.00  0.00    +0.175 C 
BRANCH  27  28
ATOM     28  C   UNL     1       5.276   1.115   0.978  0.00  0.00    +0.106 C 
BRANCH  28  29
ATOM     29  N   UNL     1       5.241   2.550   0.697  0.00  0.00    -0.328 NA
ATOM     30  H   UNL     1       5.887   2.756  -0.100  0.00  0.00    +0.118 HD
ATOM     31  H   UNL     1       4.274   2.817   0.404  0.00  0.00    +0.118 HD
ENDBRANCH  28  29
ENDBRANCH  27  28
ENDBRANCH  26  27
ENDBRANCH  25  26
ENDBRANCH   2  25
TORSDOF 11
