REMARK  Name = 
REMARK  3 active torsions:
REMARK  status: ('A' for Active; 'I' for Inactive)
REMARK    1  A    between atoms: C_2  and  C_3
REMARK    2  A    between atoms: C_3  and  O_4
REMARK    3  A    between atoms: C_3  and  C_5
REMARK                            x       y       z     vdW  Elec       q    Type
REMARK                         _______ _______ _______ _____ _____    ______ ____
ROOT
ATOM      1  N   UNL     1       0.000   0.000   0.000  0.00  0.00    +0.377 N 
ATOM      2  H   UNL     1      -0.597   0.855  -0.068  0.00  0.00    -0.094 HD
ATOM      3  H   UNL     1      -0.427  -0.768  -0.565  0.00  0.00    -0.094 HD
ATOM      4  H   UNL     1       0.068  -0.299   0.998  0.00  0.00    -0.094 HD
ATOM      5  H   UNL     1       0.955   0.212  -0.366  0.00  0.00    -0.094 HD
ENDROOT
TORSDOF 0
REMARK  Name = 
REMARK  3 active torsions:
REMARK  status: ('A' for Active; 'I' for Inactive)
REMARK    1  A    between atoms: C_2  and  C_3
REMARK    2  A    between atoms: C_3  and  O_4
REMARK    3  A    between atoms: C_3  and  C_5
REMARK                            x       y       z     vdW  Elec       q    Type
REMARK                         _______ _______ _______ _____ _____    ______ ____
ROOT
ATOM      1  C   UNL     1      -1.149  -0.550   0.200  0.00  0.00    +0.050 C 
ATOM      2  C   UNL     1       0.004   0.433   0.017  0.00  0.00    +0.224 C 
ENDROOT
BRANCH   2   3
ATOM      3  C   UNL     1       1.315  -0.264   0.244  0.00  0.00    +0.384 C 
ATOM      4  O   UNL     1       1.848  -1.087  -0.740  0.00  0.00    -0.243 OA
ATOM      5  O   UNL     1       1.918  -0.136   1.342  0.00  0.00    -0.243 OA
ENDBRANCH   2   3
BRANCH   2   6
ATOM      6  O   UNL     1      -0.039   0.962  -1.281  0.00  0.00    -0.381 OA
ATOM      7  H   UNL     1       0.547   1.764  -1.283  0.00  0.00    +0.211 HD
ENDBRANCH   2   6
TORSDOF 2
