REMARK  Name = 
REMARK  7 active torsions:
REMARK  status: ('A' for Active; 'I' for Inactive)
REMARK    1  A    between atoms: C_1  and  C_2
REMARK    2  A    between atoms: C_2  and  C_3
REMARK    3  A    between atoms: C_3  and  C_4
REMARK    4  A    between atoms: C_4  and  C_5
REMARK    5  A    between atoms: C_5  and  C_6
REMARK    6  A    between atoms: C_6  and  C_7
REMARK    7  A    between atoms: C_6  and  C_8
REMARK                            x       y       z     vdW  Elec       q    Type
REMARK                         _______ _______ _______ _____ _____    ______ ____
ROOT
ATOM      1  C   UNL     1      -1.411  -0.182   0.251  0.00  0.00    +0.123 C 
ATOM      2  C   UNL     1      -2.538   0.023  -0.765  0.00  0.00    +0.235 C 
ATOM      3  O   UNL     1      -3.122   1.136  -0.859  0.00  0.00    -0.274 OA
ATOM      4  N   UNL     1      -2.883  -1.004  -1.700  0.00  0.00    -0.239 N 
ATOM      5  C   UNL     1      -2.426  -2.340  -1.515  0.00  0.00    +0.312 C 
ATOM      6  O   UNL     1      -2.702  -3.227  -2.366  0.00  0.00    -0.252 OA
ATOM      7  N   UNL     1      -1.687  -2.676  -0.346  0.00  0.00    -0.239 N 
ATOM      8  C   UNL     1      -1.328  -1.669   0.605  0.00  0.00    +0.235 C 
ATOM      9  O   UNL     1      -0.848  -2.035   1.713  0.00  0.00    -0.274 OA
ATOM     10  H   UNL     1      -3.520  -0.784  -2.498  0.00  0.00    +0.159 HD
ATOM     11  H   UNL     1      -1.450  -3.676  -0.156  0.00  0.00    +0.159 HD
ENDROOT
BRANCH   1  13
ATOM     12  C   UNL     1      -1.453   2.158   1.473  0.00  0.00    +0.005 C 
ATOM     13  C   UNL     1      -1.706   0.644   1.555  0.00  0.00    +0.022 C 
ENDBRANCH   1  13
BRANCH   1  14
ATOM     14  C   UNL     1      -0.080   0.235  -0.444  0.00  0.00    +0.026 C 
BRANCH  14  15
ATOM     15  C   UNL     1       1.191   0.009   0.406  0.00  0.00    +0.004 C 
BRANCH  15  16
ATOM     16  C   UNL     1       2.439   0.695  -0.195  0.00  0.00    -0.017 C 
ATOM     17  C   UNL     1       2.845   0.072  -1.540  0.00  0.00    +0.007 C 
ATOM     18  C   UNL     1       3.611   0.613   0.792  0.00  0.00    +0.007 C 
ENDBRANCH  15  16
ENDBRANCH  14  15
ENDBRANCH   1  14
TORSDOF 4
