REMARK  Name = 
REMARK  9 active torsions:
REMARK  status: ('A' for Active; 'I' for Inactive)
REMARK    1  A    between atoms: C_1  and  C_2
REMARK    2  A    between atoms: C_2  and  N_3
REMARK    3  A    between atoms: N_3  and  C_4
REMARK    4  A    between atoms: N_3  and  C_6
REMARK    5  A    between atoms: C_4  and  C_5
REMARK    6  A    between atoms: C_6  and  C_7
REMARK    7  A    between atoms: C_8  and  O_9
REMARK    8  A    between atoms: C_12  and  N_13
REMARK    9  A    between atoms: N_13  and  C_14
REMARK                            x       y       z     vdW  Elec       q    Type
REMARK                         _______ _______ _______ _____ _____    ______ ____
ROOT
ATOM      1  C   UNL     1      -1.262   0.675  -0.286  0.00  0.00    +0.010 A 
ATOM      2  C   UNL     1      -0.869   1.943   0.213  0.00  0.00    +0.121 A 
ATOM      3  C   UNL     1       0.409   2.103   0.759  0.00  0.00    +0.047 A 
ATOM      4  C   UNL     1       1.294   1.028   0.835  0.00  0.00    +0.027 A 
ATOM      5  C   UNL     1       0.917  -0.236   0.357  0.00  0.00    +0.032 A 
ATOM      6  C   UNL     1      -0.363  -0.403  -0.190  0.00  0.00    +0.031 A 
ENDROOT
BRANCH   2   7
ATOM      7  O   UNL     1      -1.707   3.061   0.200  0.00  0.00    -0.506 OA
ATOM      8  H   UNL     1      -2.668   3.046  -0.107  0.00  0.00    +0.292 HD
ENDBRANCH   2   7
BRANCH   5   9
ATOM      9  N   UNL     1       1.804  -1.368   0.432  0.00  0.00    -0.314 N 
ATOM     10  H   UNL     1       1.395  -2.327   0.362  0.00  0.00    +0.152 HD
BRANCH   9  11
ATOM     11  C   UNL     1       3.193  -1.269   0.785  0.00  0.00    +0.042 A 
ATOM     12  C   UNL     1       4.121  -0.569  -0.019  0.00  0.00    +0.022 A 
ATOM     13  C   UNL     1       3.761   0.028  -1.243  0.00  0.00    +0.013 A 
ATOM     14  C   UNL     1       4.713   0.719  -1.998  0.00  0.00    +0.021 A 
ATOM     15  C   UNL     1       6.034   0.814  -1.551  0.00  0.00    +0.043 A 
ATOM     16 CL   UNL     1       7.222   1.683  -2.506  0.00  0.00    -0.083 Cl
ATOM     17  C   UNL     1       6.412   0.208  -0.349  0.00  0.00    +0.048 A 
ATOM     18  C   UNL     1       5.468  -0.488   0.414  0.00  0.00    +0.074 A 
ATOM     19  N   UNL     1       5.851  -1.097   1.568  0.00  0.00    -0.255 NA
ATOM     20  C   UNL     1       4.974  -1.797   2.333  0.00  0.00    +0.113 A 
ATOM     21  C   UNL     1       3.637  -1.901   1.952  0.00  0.00    +0.043 A 
ENDBRANCH   9  11
ENDBRANCH   5   9
BRANCH   1  22
ATOM     22  C   UNL     1      -2.618   0.407  -0.902  0.00  0.00    +0.123 C 
BRANCH  22  23
ATOM     23  N   UNL     1      -3.477  -0.344   0.037  0.00  0.00    -0.299 NA
BRANCH  23  25
ATOM     24  C   UNL     1      -5.123   1.370   0.904  0.00  0.00    +0.020 C 
ATOM     25  C   UNL     1      -3.960   0.422   1.209  0.00  0.00    +0.081 C 
ENDBRANCH  23  25
BRANCH  23  26
ATOM     26  C   UNL     1      -4.477  -1.243  -0.587  0.00  0.00    +0.081 C 
ATOM     27  C   UNL     1      -5.222  -0.637  -1.787  0.00  0.00    +0.020 C 
ENDBRANCH  23  26
ENDBRANCH  22  23
ENDBRANCH   1  22
TORSDOF 7
