REMARK  Name = 
REMARK  9 active torsions:
REMARK  status: ('A' for Active; 'I' for Inactive)
REMARK    1  A    between atoms: C_3  and  C_4
REMARK    2  A    between atoms: C_3  and  C_5
REMARK    3  A    between atoms: CA_6  and  C_23
REMARK    4  A    between atoms: CA_10  and  N_11
REMARK    5  A    between atoms: C_12  and  CA_14
REMARK    6  A    between atoms: CA_14  and  N_15
REMARK    7  A    between atoms: CA_14  and  C_16
REMARK    8  A    between atoms: C_19  and  O_20
REMARK    9  A    between atoms: C_23  and  O_24
REMARK                            x       y       z     vdW  Elec       q    Type
REMARK                         _______ _______ _______ _____ _____    ______ ____
ROOT
ATOM      1  N   UNL     1       0.411   2.035  -1.483  0.00  0.00    -0.300 N 
ATOM      2  C   UNL     1       1.571   1.567  -2.185  0.00  0.00    +0.235 C 
ATOM      3  O   UNL     1       1.463   1.133  -3.365  0.00  0.00    -0.274 OA
ATOM      4  H   UNL     1       0.540   2.449  -0.530  0.00  0.00    +0.150 HD
ENDROOT
BRANCH   1  14
ATOM      5  C   UNL     1      -1.538   0.580  -1.754  0.00  0.00    +0.165 C 
ATOM      6  S   UNL     1      -0.575  -0.676  -0.845  0.00  0.00    -0.127 S 
ATOM      7  C   UNL     1      -1.936  -0.912   0.389  0.00  0.00    +0.042 C 
ATOM      8  C   UNL     1      -2.784  -2.108  -0.090  0.00  0.00    +0.025 C 
ATOM      9  C   UNL     1      -1.307  -1.243   1.751  0.00  0.00    +0.025 C 
ATOM     10  CA  UNL     1      -2.741   0.427   0.461  0.00  0.00    +0.201 C 
ATOM     11  N   UNL     1      -2.446   1.101  -0.779  0.00  0.00    -0.271 N 
ATOM     12  C   UNL     1      -1.970   2.464  -1.106  0.00  0.00    +0.240 C 
ATOM     13  O   UNL     1      -2.257   3.626  -0.718  0.00  0.00    -0.273 OA
ATOM     14  CA  UNL     1      -0.942   1.872  -2.021  0.00  0.00    +0.190 C 
BRANCH  10  15
ATOM     15  C   UNL     1      -4.226   0.278   0.645  0.00  0.00    +0.327 C 
ATOM     16  OXT UNL     1      -4.705   0.175   1.806  0.00  0.00    -0.249 OA
BRANCH  15  17
ATOM     17  O   UNL     1      -5.069   0.208  -0.460  0.00  0.00    -0.479 OA
ATOM     18  H   UNL     1      -6.069   0.089  -0.344  0.00  0.00    +0.295 HD
ENDBRANCH  15  17
ENDBRANCH  10  15
ENDBRANCH   1  14
BRANCH   2  19
ATOM     19  CA  UNL     1       2.896   1.519  -1.471  0.00  0.00    +0.168 C 
BRANCH  19  20
ATOM     20  C   UNL     1       2.913   0.354  -0.499  0.00  0.00    -0.022 A 
ATOM     21  C   UNL     1       2.880  -0.978  -0.957  0.00  0.00    +0.009 A 
ATOM     22  C   UNL     1       2.815  -2.038  -0.048  0.00  0.00    +0.046 A 
ATOM     23  C   UNL     1       2.771  -1.786   1.326  0.00  0.00    +0.117 A 
ATOM     24  C   UNL     1       2.800  -0.466   1.791  0.00  0.00    +0.046 A 
ATOM     25  C   UNL     1       2.868   0.597   0.886  0.00  0.00    +0.009 A 
BRANCH  23  26
ATOM     26  O   UNL     1       2.694  -2.853   2.219  0.00  0.00    -0.507 OA
ATOM     27  H   UNL     1       2.656  -2.703   3.220  0.00  0.00    +0.292 HD
ENDBRANCH  23  26
ENDBRANCH  19  20
BRANCH  19  28
ATOM     28  N   UNL     1       4.016   1.460  -2.417  0.00  0.00    -0.316 NA
ATOM     29  H1  UNL     1       3.985   0.573  -2.968  0.00  0.00    +0.119 HD
ATOM     30  H2  UNL     1       4.910   1.457  -1.873  0.00  0.00    +0.119 HD
ENDBRANCH  19  28
ENDBRANCH   2  19
TORSDOF 7
