REMARK  Name = 
REMARK  0 active torsions:
REMARK  status: ('A' for Active; 'I' for Inactive)
REMARK                            x       y       z     vdW  Elec       q    Type
REMARK                         _______ _______ _______ _____ _____    ______ ____
ROOT
ATOM      1 CL   UNL     1      -0.875   4.626   2.075  0.00  0.00    -0.084 Cl
ATOM      2  C   UNL     1       0.039   3.478   1.113  0.00  0.00    +0.042 A 
ATOM      3  C   UNL     1      -0.342   2.134   1.079  0.00  0.00    +0.035 A 
ATOM      4  C   UNL     1       0.372   1.201   0.302  0.00  0.00    +0.058 A 
ATOM      5  C   UNL     1       1.516   1.635  -0.397  0.00  0.00    +0.139 A 
ATOM      6  O   UNL     1       2.338   0.760  -1.103  0.00  0.00    -0.453 OA
ATOM      7  C   UNL     1       2.836  -0.420  -0.553  0.00  0.00    +0.154 A 
ATOM      8  C   UNL     1       4.201  -0.690  -0.712  0.00  0.00    +0.048 A 
ATOM      9  C   UNL     1       4.765  -1.845  -0.166  0.00  0.00    +0.004 A 
ATOM     10  C   UNL     1       3.961  -2.749   0.527  0.00  0.00    +0.002 A 
ATOM     11  C   UNL     1       2.593  -2.504   0.664  0.00  0.00    +0.031 A 
ATOM     12  C   UNL     1       2.019  -1.337   0.140  0.00  0.00    +0.108 A 
ATOM     13  N   UNL     1       0.591  -1.234   0.159  0.00  0.00    -0.228 NA
ATOM     14  C   UNL     1      -0.169  -0.177   0.166  0.00  0.00    +0.133 C 
ATOM     15  N   UNL     1      -1.596  -0.373   0.119  0.00  0.00    -0.312 N 
ATOM     16  C   UNL     1      -2.207  -1.433   0.932  0.00  0.00    +0.121 C 
ATOM     17  C   UNL     1      -3.701  -1.550   0.634  0.00  0.00    +0.100 C 
ATOM     18  N   UNL     1      -3.896  -1.554  -0.817  0.00  0.00    -0.313 NA
ATOM     19  C   UNL     1      -3.541  -0.262  -1.437  0.00  0.00    +0.100 C 
ATOM     20  C   UNL     1      -2.450   0.522  -0.676  0.00  0.00    +0.121 C 
ATOM     21  C   UNL     1       1.868   2.991  -0.386  0.00  0.00    +0.048 A 
ATOM     22  C   UNL     1       1.135   3.909   0.367  0.00  0.00    +0.023 A 
ATOM     23  H   UNL     1      -4.906  -1.748  -1.011  0.00  0.00    +0.122 HD
ENDROOT
TORSDOF 0
