REMARK  Name = 
REMARK  19 active torsions:
REMARK  status: ('A' for Active; 'I' for Inactive)
REMARK    1  A    between atoms: C_3  and  O_4
REMARK    2  A    between atoms: O_4  and  C_5
REMARK    3  A    between atoms: C_7  and  C_8
REMARK    4  A    between atoms: C_9  and  O_10
REMARK    5  A    between atoms: C_11  and  N_12
REMARK    6  A    between atoms: C_13  and  O_14
REMARK    7  A    between atoms: C_29  and  C_30
REMARK    8  A    between atoms: C_31  and  O_32
REMARK    9  A    between atoms: C_33  and  C_34
REMARK   10  A    between atoms: C_35  and  C_36
REMARK   11  A    between atoms: C_41  and  O_42
REMARK   12  A    between atoms: C_44  and  O_45
REMARK   13  A    between atoms: C_48  and  O_49
REMARK   14  A    between atoms: C_50  and  O_51
REMARK   15  A    between atoms: C_53  and  O_54
REMARK   16  A    between atoms: C_56  and  O_57
REMARK   17  A    between atoms: C_59  and  O_60
REMARK   18  A    between atoms: C_61  and  C_62
REMARK   19  A    between atoms: C_62  and  O_63
REMARK                            x       y       z     vdW  Elec       q    Type
REMARK                         _______ _______ _______ _____ _____    ______ ____
ROOT
ATOM      1  C   UNL     1      -4.795  -1.406   2.473  0.00  0.00    +0.141 C 
ATOM      2  C   UNL     1      -4.899   0.121   2.705  0.00  0.00    +0.068 C 
ATOM      3  C   UNL     1      -5.237   0.960   1.440  0.00  0.00    +0.147 C 
ATOM      4  C   UNL     1      -4.580   2.318   1.540  0.00  0.00    +0.004 C 
ATOM      5  C   UNL     1      -4.744   3.126   2.594  0.00  0.00    -0.002 C 
ATOM      6  C   UNL     1      -3.733   4.156   2.835  0.00  0.00    -0.000 C 
ATOM      7  C   UNL     1      -2.691   3.835   3.611  0.00  0.00    -0.000 C 
ATOM      8  C   UNL     1      -1.364   4.454   3.463  0.00  0.00    -0.000 C 
ATOM      9  C   UNL     1      -1.142   5.672   2.954  0.00  0.00    -0.000 C 
ATOM     10  C   UNL     1       0.198   6.041   2.473  0.00  0.00    +0.000 C 
ATOM     11  C   UNL     1       0.879   5.204   1.682  0.00  0.00    +0.000 C 
ATOM     12  C   UNL     1       2.230   5.493   1.183  0.00  0.00    -0.000 C 
ATOM     13  C   UNL     1       2.757   4.701   0.247  0.00  0.00    -0.000 C 
ATOM     14  C   UNL     1       4.168   4.707  -0.193  0.00  0.00    -0.000 C 
ATOM     15  C   UNL     1       5.157   5.387   0.413  0.00  0.00    -0.000 C 
ATOM     16  C   UNL     1       6.583   5.108   0.149  0.00  0.00    -0.004 C 
ATOM     17  C   UNL     1       7.041   4.589  -1.000  0.00  0.00    -0.021 C 
ATOM     18  C   UNL     1       8.415   3.976  -1.091  0.00  0.00    +0.038 C 
ATOM     19  C   UNL     1       8.966   4.166  -2.511  0.00  0.00    +0.014 C 
ATOM     20  C   UNL     1       8.324   2.473  -0.678  0.00  0.00    +0.127 C 
ATOM     21  C   UNL     1       9.669   1.676  -0.730  0.00  0.00    +0.055 C 
ATOM     22  C   UNL     1      10.792   2.426   0.028  0.00  0.00    +0.014 C 
ATOM     23  C   UNL     1       9.488   0.239  -0.143  0.00  0.00    +0.179 C 
ATOM     24  C   UNL     1      10.732  -0.639  -0.360  0.00  0.00    +0.052 C 
ATOM     25  O   UNL     1       8.366  -0.409  -0.752  0.00  0.00    -0.461 OA
ATOM     26  C   UNL     1       7.698  -1.505  -0.191  0.00  0.00    +0.310 C 
ATOM     27  O   UNL     1       8.080  -1.993   0.906  0.00  0.00    -0.251 OA
ATOM     28  C   UNL     1       6.553  -2.132  -0.931  0.00  0.00    +0.152 C 
ATOM     29  C   UNL     1       5.293  -2.267  -0.050  0.00  0.00    +0.128 C 
ATOM     30  C   UNL     1       4.030  -2.649  -0.861  0.00  0.00    +0.063 C 
ATOM     31  C   UNL     1       4.099  -4.054  -1.514  0.00  0.00    +0.117 C 
ATOM     32  C   UNL     1       2.709  -4.582  -1.931  0.00  0.00    +0.034 C 
ATOM     33  C   UNL     1       1.849  -5.049  -0.737  0.00  0.00    +0.036 C 
ATOM     34  C   UNL     1       0.711  -6.021  -1.141  0.00  0.00    +0.143 C 
ATOM     35  C   UNL     1      -0.352  -5.446  -2.120  0.00  0.00    +0.145 C 
ATOM     36  C   UNL     1      -1.052  -4.149  -1.648  0.00  0.00    +0.065 C 
ATOM     37  C   UNL     1      -2.042  -4.335  -0.470  0.00  0.00    +0.122 C 
ATOM     38  C   UNL     1      -2.781  -3.005  -0.181  0.00  0.00    +0.096 C 
ATOM     39  C   UNL     1      -3.711  -2.988   1.065  0.00  0.00    +0.172 C 
ATOM     40  C   UNL     1      -5.040  -3.718   0.775  0.00  0.00    +0.097 C 
ATOM     41  C   UNL     1      -6.015  -3.565   1.947  0.00  0.00    +0.136 C 
ATOM     42  C   UNL     1      -6.184  -2.078   2.320  0.00  0.00    +0.155 C 
ATOM     43  O   UNL     1      -3.971  -1.619   1.339  0.00  0.00    -0.344 OA
ENDROOT
BRANCH  20  44
ATOM     44  O   UNL     1       7.378   1.842  -1.509  0.00  0.00    -0.391 OA
ATOM     45  H   UNL     1       6.520   1.806  -1.009  0.00  0.00    +0.210 HD
ENDBRANCH  20  44
BRANCH  29  46
ATOM     46  O   UNL     1       5.527  -3.209   0.966  0.00  0.00    -0.391 OA
ATOM     47  H   UNL     1       4.812  -3.085   1.640  0.00  0.00    +0.210 HD
ENDBRANCH  29  46
BRANCH  31  48
ATOM     48  O   UNL     1       4.948  -4.033  -2.635  0.00  0.00    -0.392 OA
ATOM     49  H   UNL     1       4.544  -3.423  -3.307  0.00  0.00    +0.210 HD
ENDBRANCH  31  48
BRANCH  34  50
ATOM     50  O   UNL     1       0.073  -6.498   0.017  0.00  0.00    -0.389 OA
ATOM     51  H   UNL     1       0.655  -7.204   0.402  0.00  0.00    +0.210 HD
ENDBRANCH  34  50
BRANCH  35  52
ATOM     52  O   UNL     1       0.217  -5.205  -3.380  0.00  0.00    -0.389 OA
ATOM     53  H   UNL     1       0.401  -6.092  -3.790  0.00  0.00    +0.210 HD
ENDBRANCH  35  52
BRANCH  37  54
ATOM     54  O   UNL     1      -2.952  -5.370  -0.749  0.00  0.00    -0.392 OA
ATOM     55  H   UNL     1      -3.463  -5.105  -1.560  0.00  0.00    +0.210 HD
ENDBRANCH  37  54
BRANCH  39  56
ATOM     56  O   UNL     1      -3.058  -3.599   2.155  0.00  0.00    -0.364 OA
ATOM     57  H   UNL     1      -2.274  -3.031   2.387  0.00  0.00    +0.213 HD
ENDBRANCH  39  56
BRANCH  41  58
ATOM     58  O   UNL     1      -7.256  -4.114   1.579  0.00  0.00    -0.391 OA
ATOM     59  H   UNL     1      -7.691  -4.432   2.413  0.00  0.00    +0.210 HD
ENDBRANCH  41  58
BRANCH  42  60
ATOM     60  C   UNL     1      -6.976  -1.948   3.606  0.00  0.00    +0.313 C 
ATOM     61  O   UNL     1      -6.654  -2.621   4.620  0.00  0.00    -0.251 OA
BRANCH  60  62
ATOM     62  O   UNL     1      -8.004  -1.014   3.724  0.00  0.00    -0.480 OA
ATOM     63  H   UNL     1      -8.267  -0.421   2.947  0.00  0.00    +0.295 HD
ENDBRANCH  60  62
ENDBRANCH  42  60
BRANCH   3  64
ATOM     64  O   UNL     1      -6.643   1.099   1.283  0.00  0.00    -0.341 OA
BRANCH  64  65
ATOM     65  C   UNL     1      -6.981   1.449  -0.057  0.00  0.00    +0.281 C 
ATOM     66  O   UNL     1      -8.058   2.368  -0.028  0.00  0.00    -0.343 OA
ATOM     67  C   UNL     1      -8.301   2.886  -1.329  0.00  0.00    +0.148 C 
ATOM     68  C   UNL     1      -9.377   3.966  -1.216  0.00  0.00    +0.041 C 
ATOM     69  C   UNL     1      -8.741   1.765  -2.308  0.00  0.00    +0.162 C 
ATOM     70  C   UNL     1      -7.713   0.612  -2.299  0.00  0.00    +0.116 C 
ATOM     71  C   UNL     1      -7.408   0.187  -0.851  0.00  0.00    +0.189 C 
BRANCH  70  72
ATOM     72  N   UNL     1      -8.219  -0.531  -3.066  0.00  0.00    -0.323 NA
ATOM     73  H   UNL     1      -8.359  -0.230  -4.059  0.00  0.00    +0.119 HD
ATOM     74  H   UNL     1      -7.471  -1.262  -3.093  0.00  0.00    +0.119 HD
ENDBRANCH  70  72
BRANCH  69  75
ATOM     75  O   UNL     1      -8.828   2.288  -3.613  0.00  0.00    -0.388 OA
ATOM     76  H   UNL     1      -9.785   2.480  -3.787  0.00  0.00    +0.210 HD
ENDBRANCH  69  75
BRANCH  71  77
ATOM     77  O   UNL     1      -8.547  -0.450  -0.309  0.00  0.00    -0.385 OA
ATOM     78  H   UNL     1      -8.651  -0.201   0.641  0.00  0.00    +0.210 HD
ENDBRANCH  71  77
ENDBRANCH  64  65
ENDBRANCH   3  64
TORSDOF 15
