REMARK  Name = 
REMARK  4 active torsions:
REMARK  status: ('A' for Active; 'I' for Inactive)
REMARK    1  A    between atoms: C_1  and  C_2
REMARK    2  A    between atoms: C_2  and  N_3
REMARK    3  A    between atoms: C_2  and  C_4
REMARK    4  A    between atoms: C_4  and  C_5
REMARK                            x       y       z     vdW  Elec       q    Type
REMARK                         _______ _______ _______ _____ _____    ______ ____
ROOT
ATOM      1  C   UNL     1      -0.606   0.838   0.659  0.00  0.00    +0.053 C 
ENDROOT
BRANCH   1   2
ATOM      2  C   UNL     1       0.741   0.261   0.302  0.00  0.00    -0.046 A 
ATOM      3  C   UNL     1       1.424   0.714  -0.839  0.00  0.00    +0.004 A 
ATOM      4  C   UNL     1       2.663   0.165  -1.183  0.00  0.00    +0.000 A 
ATOM      5  C   UNL     1       3.228  -0.840  -0.394  0.00  0.00    +0.000 A 
ATOM      6  C   UNL     1       2.553  -1.301   0.740  0.00  0.00    +0.000 A 
ATOM      7  C   UNL     1       1.313  -0.755   1.088  0.00  0.00    +0.004 A 
ENDBRANCH   1   2
BRANCH   1   9
ATOM      8  C   UNL     1      -3.041   1.006   0.043  0.00  0.00    +0.024 C 
ATOM      9  C   UNL     1      -1.734   0.243  -0.208  0.00  0.00    +0.052 C 
BRANCH   9  10
ATOM     10  N   UNL     1      -1.925  -1.177   0.101  0.00  0.00    -0.327 NA
ATOM     11  H   UNL     1      -1.079  -1.703  -0.218  0.00  0.00    +0.118 HD
ATOM     12  H   UNL     1      -2.713  -1.541  -0.483  0.00  0.00    +0.118 HD
ENDBRANCH   9  10
ENDBRANCH   1   9
TORSDOF 3
