REMARK  Name = 
REMARK  8 active torsions:
REMARK  status: ('A' for Active; 'I' for Inactive)
REMARK    1  A    between atoms: C_3  and  C_4
REMARK    2  A    between atoms: C_3  and  C_5
REMARK    3  A    between atoms: CA_6  and  C_22
REMARK    4  A    between atoms: CA_10  and  N_11
REMARK    5  A    between atoms: C_12  and  CA_14
REMARK    6  A    between atoms: CA_14  and  N_15
REMARK    7  A    between atoms: CA_14  and  C_16
REMARK    8  A    between atoms: C_22  and  O_23
REMARK                            x       y       z     vdW  Elec       q    Type
REMARK                         _______ _______ _______ _____ _____    ______ ____
ROOT
ATOM      1  C   UNL     1      -1.186   2.048  -0.959  0.00  0.00    +0.165 C 
ATOM      2  S   UNL     1      -0.162   0.596  -1.406  0.00  0.00    -0.127 S 
ATOM      3  C   UNL     1      -1.552  -0.610  -1.167  0.00  0.00    +0.042 C 
ATOM      4  C   UNL     1      -1.520  -1.643  -2.310  0.00  0.00    +0.025 C 
ATOM      5  C   UNL     1      -1.305  -1.344   0.163  0.00  0.00    +0.025 C 
ATOM      6  CA  UNL     1      -2.889   0.194  -1.079  0.00  0.00    +0.201 C 
ATOM      7  N   UNL     1      -2.476   1.508  -0.658  0.00  0.00    -0.271 N 
ATOM      8  C   UNL     1      -2.413   2.175   0.663  0.00  0.00    +0.240 C 
ATOM      9  O   UNL     1      -3.176   2.248   1.662  0.00  0.00    -0.273 OA
ATOM     10  CA  UNL     1      -1.029   2.651   0.347  0.00  0.00    +0.190 C 
ENDROOT
BRANCH  10  11
ATOM     11  N   UNL     1      -0.026   2.012   1.202  0.00  0.00    -0.300 N 
ATOM     12  C   UNL     1       1.376   2.275   1.055  0.00  0.00    +0.235 C 
ATOM     13  O   UNL     1       1.778   3.096   0.185  0.00  0.00    -0.274 OA
ATOM     14  H   UNL     1      -0.334   1.388   1.982  0.00  0.00    +0.150 HD
BRANCH  12  15
ATOM     15  CA  UNL     1       2.364   1.521   1.907  0.00  0.00    +0.168 C 
BRANCH  15  16
ATOM     16  C   UNL     1       2.446   0.072   1.461  0.00  0.00    -0.022 A 
ATOM     17  C   UNL     1       2.844  -0.261   0.152  0.00  0.00    +0.005 A 
ATOM     18  C   UNL     1       2.893  -1.597  -0.255  0.00  0.00    +0.000 A 
ATOM     19  C   UNL     1       2.550  -2.614   0.639  0.00  0.00    +0.000 A 
ATOM     20  C   UNL     1       2.155  -2.296   1.941  0.00  0.00    +0.000 A 
ATOM     21  C   UNL     1       2.102  -0.960   2.351  0.00  0.00    +0.005 A 
ENDBRANCH  15  16
BRANCH  15  22
ATOM     22  N   UNL     1       3.683   2.162   1.890  0.00  0.00    -0.316 NA
ATOM     23  H1  UNL     1       4.108   2.087   0.937  0.00  0.00    +0.119 HD
ATOM     24  H2  UNL     1       4.311   1.645   2.548  0.00  0.00    +0.119 HD
ENDBRANCH  15  22
ENDBRANCH  12  15
ENDBRANCH  10  11
BRANCH   6  25
ATOM     25  C   UNL     1      -3.627   0.314  -2.386  0.00  0.00    +0.327 C 
ATOM     26  OXT UNL     1      -4.673  -0.361  -2.580  0.00  0.00    -0.249 OA
BRANCH  25  27
ATOM     27  O   UNL     1      -3.139   1.141  -3.394  0.00  0.00    -0.479 OA
ATOM     28  H   UNL     1      -3.621   1.217  -4.282  0.00  0.00    +0.295 HD
ENDBRANCH  25  27
ENDBRANCH   6  25
TORSDOF 6
