REMARK  Name = 
REMARK  16 active torsions:
REMARK  status: ('A' for Active; 'I' for Inactive)
REMARK    1  A    between atoms: C_1  and  C_2
REMARK    2  A    between atoms: C_2  and  C_3
REMARK    3  A    between atoms: C_2  and  C_4
REMARK    4  A    between atoms: C_4  and  N_5
REMARK    5  A    between atoms: N_5  and  C_6
REMARK    6  A    between atoms: N_5  and  S_26
REMARK    7  A    between atoms: C_6  and  C_7
REMARK    8  A    between atoms: C_7  and  O_8
REMARK    9  A    between atoms: C_7  and  C_9
REMARK   10  A    between atoms: C_9  and  C_10
REMARK   11  A    between atoms: C_9  and  N_17
REMARK   12  A    between atoms: C_10  and  C_11
REMARK   13  A    between atoms: C_18  and  O_20
REMARK   14  A    between atoms: O_20  and  C_21
REMARK   15  A    between atoms: S_26  and  C_29
REMARK   16  A    between atoms: C_32  and  N_33
REMARK                            x       y       z     vdW  Elec       q    Type
REMARK                         _______ _______ _______ _____ _____    ______ ____
ROOT
ATOM      1  C   UNL     1      -0.525   0.898   0.484  0.00  0.00    +0.151 C 
ENDROOT
BRANCH   1   2
ATOM      2  O   UNL     1      -0.965   2.230   0.422  0.00  0.00    -0.389 OA
ATOM      3  H   UNL     1      -0.656   2.678   1.252  0.00  0.00    +0.210 HD
ENDBRANCH   1   2
BRANCH   1   4
ATOM      4  C   UNL     1       1.007   0.844   0.290  0.00  0.00    +0.142 C 
BRANCH   4   5
ATOM      5  N   UNL     1       1.493  -0.552   0.270  0.00  0.00    -0.174 NA
BRANCH   5   6
ATOM      6  S   UNL     1       1.902  -1.200   1.845  0.00  0.00    +0.061 S 
ATOM      7  O   UNL     1       1.813  -2.701   1.789  0.00  0.00    -0.153 OA
ATOM      8  O   UNL     1       0.919  -0.721   2.876  0.00  0.00    -0.153 OA
BRANCH   6   9
ATOM      9  C   UNL     1       3.522  -0.738   2.359  0.00  0.00    +0.106 A 
ATOM     10  C   UNL     1       3.732   0.492   2.997  0.00  0.00    +0.030 A 
ATOM     11  C   UNL     1       5.015   0.860   3.412  0.00  0.00    +0.024 A 
ATOM     12  C   UNL     1       6.101  -0.001   3.198  0.00  0.00    +0.025 A 
ATOM     13  C   UNL     1       5.890  -1.236   2.567  0.00  0.00    +0.024 A 
ATOM     14  C   UNL     1       4.606  -1.605   2.155  0.00  0.00    +0.030 A 
BRANCH  12  15
ATOM     15  N   UNL     1       7.413   0.377   3.621  0.00  0.00    -0.358 N 
ATOM     16  H   UNL     1       8.231  -0.247   3.445  0.00  0.00    +0.142 HD
ATOM     17  H   UNL     1       7.577   1.286   4.109  0.00  0.00    +0.142 HD
ENDBRANCH  12  15
ENDBRANCH   6   9
ENDBRANCH   5   6
BRANCH   5  18
ATOM     18  C   UNL     1       2.377  -1.020  -0.829  0.00  0.00    +0.112 C 
BRANCH  18  20
ATOM     19  C   UNL     1       4.125  -0.663  -2.615  0.00  0.00    +0.008 C 
ATOM     20  C   UNL     1       3.310   0.025  -1.509  0.00  0.00    -0.001 C 
ATOM     21  C   UNL     1       4.269   0.710  -0.529  0.00  0.00    +0.008 C 
ENDBRANCH  18  20
ENDBRANCH   5  18
ENDBRANCH   4   5
ENDBRANCH   1   4
BRANCH   1  22
ATOM     22  C   UNL     1      -1.309   0.026  -0.535  0.00  0.00    +0.110 C 
BRANCH  22  23
ATOM     23  N   UNL     1      -2.739   0.039  -0.205  0.00  0.00    -0.275 N 
ATOM     24  C   UNL     1      -3.576  -1.115  -0.330  0.00  0.00    +0.401 C 
ATOM     25  O   UNL     1      -3.078  -2.239  -0.618  0.00  0.00    -0.226 OA
ATOM     26  H   UNL     1      -3.202   0.949   0.021  0.00  0.00    +0.152 HD
BRANCH  24  27
ATOM     27  O   UNL     1      -4.954  -0.984  -0.125  0.00  0.00    -0.445 OA
BRANCH  27  28
ATOM     28  C   UNL     1      -5.834  -2.106  -0.031  0.00  0.00    +0.206 C 
ATOM     29  C   UNL     1      -5.693  -2.804   1.290  0.00  0.00    +0.075 C 
ATOM     30  C   UNL     1      -7.108  -3.258   1.595  0.00  0.00    +0.163 C 
ATOM     31  O   UNL     1      -8.021  -2.539   0.795  0.00  0.00    -0.376 OA
ATOM     32  C   UNL     1      -7.280  -1.659  -0.017  0.00  0.00    +0.204 C 
ENDBRANCH  27  28
ENDBRANCH  24  27
ENDBRANCH  22  23
BRANCH  22  33
ATOM     33  C   UNL     1      -1.096   0.395  -2.025  0.00  0.00    +0.060 C 
BRANCH  33  34
ATOM     34  C   UNL     1      -1.629   1.756  -2.412  0.00  0.00    -0.046 A 
ATOM     35  C   UNL     1      -2.998   1.933  -2.679  0.00  0.00    +0.004 A 
ATOM     36  C   UNL     1      -3.490   3.190  -3.040  0.00  0.00    +0.000 A 
ATOM     37  C   UNL     1      -2.620   4.279  -3.145  0.00  0.00    +0.000 A 
ATOM     38  C   UNL     1      -1.256   4.111  -2.892  0.00  0.00    +0.000 A 
ATOM     39  C   UNL     1      -0.760   2.855  -2.532  0.00  0.00    +0.004 A 
ENDBRANCH  33  34
ENDBRANCH  22  33
ENDBRANCH   1  22
TORSDOF 14
