REMARK  Name = 
REMARK  2 active torsions:
REMARK  status: ('A' for Active; 'I' for Inactive)
REMARK    1  A    between atoms: N_1  and  C_2
REMARK    2  A    between atoms: C_4  and  C_9
REMARK                            x       y       z     vdW  Elec       q    Type
REMARK                         _______ _______ _______ _____ _____    ______ ____
ROOT
ATOM      1  C   UNL     1       2.444   0.163   0.487  0.00  0.00    +0.090 A 
ATOM      2  C   UNL     1       1.069   0.292   0.710  0.00  0.00    +0.038 A 
ATOM      3  C   UNL     1       0.147  -0.121  -0.266  0.00  0.00    +0.000 A 
ATOM      4  C   UNL     1       0.642  -0.663  -1.463  0.00  0.00    +0.094 A 
ATOM      5  N   UNL     1       1.982  -0.781  -1.665  0.00  0.00    -0.327 N 
ATOM      6  C   UNL     1       2.887  -0.386  -0.728  0.00  0.00    +0.270 A 
ATOM      7  O   UNL     1       4.120  -0.514  -0.958  0.00  0.00    -0.266 OA
ATOM      8  H   UNL     1       2.320  -1.185  -2.569  0.00  0.00    +0.168 HD
ENDROOT
BRANCH   3   9
ATOM      9  C   UNL     1      -1.315   0.013  -0.037  0.00  0.00    -0.014 A 
ATOM     10  C   UNL     1      -1.840   1.152   0.598  0.00  0.00    +0.028 A 
ATOM     11  C   UNL     1      -3.218   1.257   0.802  0.00  0.00    +0.111 A 
ATOM     12  N   UNL     1      -4.047   0.263   0.390  0.00  0.00    -0.263 NA
ATOM     13  C   UNL     1      -3.571  -0.851  -0.227  0.00  0.00    +0.111 A 
ATOM     14  C   UNL     1      -2.200  -0.997  -0.452  0.00  0.00    +0.028 A 
ENDBRANCH   3   9
BRANCH   1  15
ATOM     15  N   UNL     1       3.375   0.583   1.492  0.00  0.00    -0.354 N 
ATOM     16  H   UNL     1       3.037   0.989   2.394  0.00  0.00    +0.142 HD
ATOM     17  H   UNL     1       4.405   0.494   1.349  0.00  0.00    +0.142 HD
ENDBRANCH   1  15
TORSDOF 2
