REMARK  Name = 
REMARK  7 active torsions:
REMARK  status: ('A' for Active; 'I' for Inactive)
REMARK    1  A    between atoms: C_1  and  O_2
REMARK    2  A    between atoms: O_2  and  C_3
REMARK    3  A    between atoms: C_4  and  N_5
REMARK    4  A    between atoms: N_5  and  C_6
REMARK    5  A    between atoms: C_22  and  N_23
REMARK    6  A    between atoms: N_23  and  S_24
REMARK    7  A    between atoms: S_24  and  C_25
REMARK                            x       y       z     vdW  Elec       q    Type
REMARK                         _______ _______ _______ _____ _____    ______ ____
ROOT
ATOM      1  N   UNL     1      -0.992  -0.552  -1.173  0.00  0.00    -0.311 N 
ATOM      2  H   UNL     1      -1.256  -1.140  -1.995  0.00  0.00    +0.152 HD
ENDROOT
BRANCH   1   3
ATOM      3  C   UNL     1      -2.057  -0.126  -0.307  0.00  0.00    +0.050 A 
ATOM      4  C   UNL     1      -2.405   1.241  -0.213  0.00  0.00    +0.022 A 
ATOM      5  C   UNL     1      -1.755   2.232  -0.975  0.00  0.00    +0.012 A 
ATOM      6  C   UNL     1      -2.124   3.575  -0.849  0.00  0.00    +0.001 A 
ATOM      7  C   UNL     1      -3.145   3.944   0.029  0.00  0.00    +0.002 A 
ATOM      8  C   UNL     1      -3.808   2.972   0.781  0.00  0.00    +0.028 A 
ATOM      9  C   UNL     1      -3.448   1.624   0.663  0.00  0.00    +0.073 A 
ATOM     10  N   UNL     1      -4.110   0.688   1.389  0.00  0.00    -0.247 NA
ATOM     11  C   UNL     1      -3.808  -0.633   1.309  0.00  0.00    +0.073 A 
ATOM     12  C   UNL     1      -4.526  -1.555   2.080  0.00  0.00    +0.028 A 
ATOM     13  C   UNL     1      -4.219  -2.916   2.013  0.00  0.00    +0.002 A 
ATOM     14  C   UNL     1      -3.192  -3.362   1.178  0.00  0.00    +0.001 A 
ATOM     15  C   UNL     1      -2.469  -2.452   0.402  0.00  0.00    +0.012 A 
ATOM     16  C   UNL     1      -2.771  -1.076   0.454  0.00  0.00    +0.022 A 
ENDBRANCH   1   3
BRANCH   1  18
ATOM     17  C   UNL     1       1.372  -0.583  -1.876  0.00  0.00    +0.143 A 
ATOM     18  C   UNL     1       0.401  -0.300  -0.897  0.00  0.00    +0.074 A 
ATOM     19  C   UNL     1       0.807   0.220   0.345  0.00  0.00    +0.029 A 
ATOM     20  C   UNL     1       2.156   0.460   0.611  0.00  0.00    +0.026 A 
ATOM     21  C   UNL     1       3.134   0.178  -0.356  0.00  0.00    +0.051 A 
ATOM     22  C   UNL     1       2.731  -0.339  -1.597  0.00  0.00    +0.072 A 
BRANCH  17  24
ATOM     23  C   UNL     1       1.826  -1.426  -4.192  0.00  0.00    +0.277 C 
ATOM     24  O   UNL     1       0.955  -1.099  -3.115  0.00  0.00    -0.493 OA
ENDBRANCH  17  24
BRANCH  21  25
ATOM     25  N   UNL     1       4.534   0.414  -0.118  0.00  0.00    -0.221 N 
ATOM     26  H   UNL     1       5.209   0.275  -0.904  0.00  0.00    +0.173 HD
BRANCH  25  27
ATOM     27  S   UNL     1       5.217   0.818   1.426  0.00  0.00    +0.040 S 
ATOM     28  C   UNL     1       4.951  -0.509   2.582  0.00  0.00    +0.218 C 
ATOM     29  O   UNL     1       4.611   2.094   1.940  0.00  0.00    -0.155 OA
ATOM     30  O   UNL     1       6.697   1.019   1.263  0.00  0.00    -0.155 OA
ENDBRANCH  25  27
ENDBRANCH  21  25
ENDBRANCH   1  18
TORSDOF 5
