REMARK  Name = 
REMARK  6 active torsions:
REMARK  status: ('A' for Active; 'I' for Inactive)
REMARK    1  A    between atoms: C_1  and  C_2
REMARK    2  A    between atoms: C_2  and  C_3
REMARK    3  A    between atoms: C_3  and  C_4
REMARK    4  A    between atoms: C_4  and  C_5
REMARK    5  A    between atoms: C_5  and  O_6
REMARK    6  A    between atoms: O_6  and  N_7
REMARK                            x       y       z     vdW  Elec       q    Type
REMARK                         _______ _______ _______ _____ _____    ______ ____
ROOT
ATOM      1  C   UNL     1       0.693   0.478  -0.043  0.00  0.00    +0.044 C 
ENDROOT
BRANCH   1   2
ATOM      2  C   UNL     1      -0.591  -0.332   0.170  0.00  0.00    +0.003 C 
BRANCH   2   4
ATOM      3  C   UNL     1      -3.065  -0.212   0.653  0.00  0.00    +0.004 C 
ATOM      4  C   UNL     1      -1.785   0.591   0.441  0.00  0.00    -0.003 C 
ENDBRANCH   2   4
ENDBRANCH   1   2
BRANCH   1   5
ATOM      5  C   UNL     1       1.885  -0.438  -0.314  0.00  0.00    +0.266 C 
BRANCH   5   6
ATOM      6  O   UNL     1       3.052   0.346  -0.505  0.00  0.00    -0.363 OA
BRANCH   6   7
ATOM      7  N   UNL     1       4.260  -0.258  -0.765  0.00  0.00    +0.155 NA
ATOM      8  O   UNL     1       5.282   0.438  -0.931  0.00  0.00    -0.105 OA
ENDBRANCH   6   7
ENDBRANCH   5   6
ENDBRANCH   1   5
TORSDOF 5
