REMARK  Name = 
REMARK  0 active torsions:
REMARK  status: ('A' for Active; 'I' for Inactive)
REMARK                            x       y       z     vdW  Elec       q    Type
REMARK                         _______ _______ _______ _____ _____    ______ ____
ROOT
ATOM      1 CL   UNL     1      -5.054  -1.053   0.108  0.00  0.00    -0.082 Cl
ATOM      2  C   UNL     1      -3.450  -0.333   0.181  0.00  0.00    +0.060 A 
ATOM      3  C   UNL     1      -3.337   1.011   0.545  0.00  0.00    +0.023 A 
ATOM      4  C   UNL     1      -2.085   1.620   0.615  0.00  0.00    +0.030 A 
ATOM      5  C   UNL     1      -0.928   0.893   0.322  0.00  0.00    +0.073 A 
ATOM      6  N   UNL     1       0.345   1.551   0.403  0.00  0.00    -0.218 NA
ATOM      7  C   UNL     1       1.432   0.905   0.138  0.00  0.00    +0.190 C 
ATOM      8  N   UNL     1       2.728   1.466   0.191  0.00  0.00    -0.257 N 
ATOM      9  C   UNL     1       3.573   0.381  -0.177  0.00  0.00    +0.237 C 
ATOM     10  O   UNL     1       4.825   0.482  -0.249  0.00  0.00    -0.274 OA
ATOM     11  C   UNL     1       2.808  -0.879  -0.467  0.00  0.00    +0.204 C 
ATOM     12  N   UNL     1       1.429  -0.459  -0.241  0.00  0.00    -0.290 N 
ATOM     13  C   UNL     1       0.226  -1.274  -0.372  0.00  0.00    +0.147 C 
ATOM     14  C   UNL     1      -1.025  -0.474  -0.050  0.00  0.00    +0.015 A 
ATOM     15  C   UNL     1      -2.298  -1.083  -0.118  0.00  0.00    +0.066 A 
ATOM     16 CL   UNL     1      -2.453  -2.781  -0.578  0.00  0.00    -0.082 Cl
ATOM     17  H   UNL     1       3.000   2.443   0.440  0.00  0.00    +0.157 HD
ENDROOT
TORSDOF 0
