REMARK  Name = 
REMARK  10 active torsions:
REMARK  status: ('A' for Active; 'I' for Inactive)
REMARK    1  A    between atoms: C_1  and  C_2
REMARK    2  A    between atoms: C_2  and  C_3
REMARK    3  A    between atoms: C_2  and  C_4
REMARK    4  A    between atoms: C_2  and  C_6
REMARK    5  A    between atoms: C_8  and  C_18
REMARK    6  A    between atoms: C_10  and  C_11
REMARK    7  A    between atoms: C_11  and  N_12
REMARK    8  A    between atoms: C_18  and  C_19
REMARK    9  A    between atoms: C_18  and  C_20
REMARK   10  A    between atoms: C_18  and  C_21
REMARK                            x       y       z     vdW  Elec       q    Type
REMARK                         _______ _______ _______ _____ _____    ______ ____
ROOT
ATOM      1  C   UNL     1      -1.053  -0.898  -0.337  0.00  0.00    -0.027 A 
ATOM      2  C   UNL     1      -1.273   0.486  -0.153  0.00  0.00    +0.010 A 
ATOM      3  C   UNL     1      -0.227   1.429  -0.265  0.00  0.00    -0.027 A 
ATOM      4  C   UNL     1       1.067   0.950  -0.547  0.00  0.00    +0.010 A 
ATOM      5  C   UNL     1       1.304  -0.410  -0.773  0.00  0.00    -0.025 A 
ATOM      6  C   UNL     1       0.250  -1.325  -0.667  0.00  0.00    +0.010 A 
ENDROOT
BRANCH   1   8
ATOM      7  C   UNL     1      -3.170  -1.661  -1.446  0.00  0.00    +0.032 C 
ATOM      8  C   UNL     1      -2.240  -1.872  -0.238  0.00  0.00    +0.077 C 
ATOM      9  C   UNL     1      -1.821  -3.357  -0.188  0.00  0.00    +0.032 C 
BRANCH   8  10
ATOM     10  C   UNL     1      -2.998  -1.596   1.001  0.00  0.00    +0.073 C 
ATOM     11  N   UNL     1      -3.592  -1.379   1.971  0.00  0.00    -0.196 NA
ENDBRANCH   8  10
ENDBRANCH   1   8
BRANCH   3  12
ATOM     12  C   UNL     1      -0.436   2.929   0.002  0.00  0.00    +0.077 C 
ATOM     13  C   UNL     1      -1.919   3.360  -0.012  0.00  0.00    +0.032 C 
ATOM     14  C   UNL     1       0.174   3.288   1.368  0.00  0.00    +0.032 C 
BRANCH  12  15
ATOM     15  C   UNL     1       0.250   3.715  -1.047  0.00  0.00    +0.073 C 
ATOM     16  N   UNL     1       0.787   4.330  -1.867  0.00  0.00    -0.196 NA
ENDBRANCH  12  15
ENDBRANCH   3  12
BRANCH   5  17
ATOM     17  C   UNL     1       2.700  -0.895  -1.048  0.00  0.00    +0.180 C 
BRANCH  17  18
ATOM     18  N   UNL     1       3.361  -1.234   0.208  0.00  0.00    -0.248 N 
ATOM     19  C   UNL     1       4.018  -0.394   1.024  0.00  0.00    +0.219 A 
ATOM     20  N   UNL     1       4.435  -1.027   2.137  0.00  0.00    -0.223 NA
ATOM     21  C   UNL     1       3.983  -2.286   1.943  0.00  0.00    +0.245 A 
ATOM     22  N   UNL     1       3.320  -2.423   0.778  0.00  0.00    -0.158 NA
ENDBRANCH  17  18
ENDBRANCH   5  17
TORSDOF 6
