REMARK  Name = 
REMARK  27 active torsions:
REMARK  status: ('A' for Active; 'I' for Inactive)
REMARK    1  A    between atoms: C_4  and  O_5
REMARK    2  A    between atoms: C_10  and  C_85
REMARK    3  A    between atoms: C_15  and  N_58
REMARK    4  A    between atoms: C_17  and  O_18
REMARK    5  A    between atoms: C_19  and  O_20
REMARK    6  A    between atoms: C_26  and  O_27
REMARK    7  A    between atoms: C_28  and  C_29
REMARK    8  A    between atoms: C_34  and  C_55
REMARK    9  A    between atoms: C_39  and  C_44
REMARK   10  A    between atoms: C_44  and  O_45
REMARK   11  A    between atoms: C_44  and  C_46
REMARK   12  A    between atoms: C_46  and  O_47
REMARK   13  A    between atoms: C_46  and  C_48
REMARK   14  A    between atoms: C_51  and  O_52
REMARK   15  A    between atoms: C_55  and  C_56
REMARK   16  A    between atoms: C_55  and  O_57
REMARK   17  A    between atoms: C_59  and  C_61
REMARK   18  A    between atoms: C_64  and  C_67
REMARK   19  A    between atoms: C_70  and  C_73
REMARK   20  A    between atoms: C_76  and  O_77
REMARK   21  A    between atoms: O_77  and  C_78
REMARK   22  A    between atoms: C_78  and  C_79
REMARK   23  A    between atoms: C_79  and  C_80
REMARK   24  A    between atoms: C_80  and  C_81
REMARK   25  A    between atoms: C_81  and  C_82
REMARK   26  A    between atoms: C_85  and  C_86
REMARK   27  A    between atoms: C_85  and  O_87
REMARK                            x       y       z     vdW  Elec       q    Type
REMARK                         _______ _______ _______ _____ _____    ______ ____
ROOT
ATOM      1  C   UNL     1       1.206   0.699  -3.628  0.00  0.00    +0.164 C 
ATOM      2  C   UNL     1       0.825   0.127  -1.324  0.00  0.00    +0.065 C 
ATOM      3  C   UNL     1      -0.046  -0.837  -1.989  0.00  0.00    +0.134 C 
ATOM      4  C   UNL     1       0.619  -0.111  -4.143  0.00  0.00    +0.140 C 
ATOM      5  N   UNL     1       2.184   0.579  -5.948  0.00  0.00    -0.286 N 
ATOM      6  C   UNL     1       3.558   0.813  -8.018  0.00  0.00    +0.239 C 
ATOM      7  O   UNL     1       3.897   0.322  -9.569  0.00  0.00    -0.273 OA
ATOM      8  C   UNL     1       5.190   1.180 -10.231  0.00  0.00    +0.187 C 
ATOM      9  N   UNL     1       5.816   2.257 -12.069  0.00  0.00    -0.300 N 
ATOM     10  C   UNL     1       6.928   3.230 -11.905  0.00  0.00    +0.234 C 
ATOM     11  O   UNL     1       7.956   2.794 -11.442  0.00  0.00    -0.274 OA
ATOM     12  C   UNL     1       6.213   4.212 -11.167  0.00  0.00    +0.162 C 
ATOM     13  C   UNL     1       5.893   3.731  -9.782  0.00  0.00    +0.067 C 
ATOM     14  C   UNL     1       7.106   3.296  -8.974  0.00  0.00    +0.163 C 
ATOM     15  C   UNL     1       8.048   4.477  -8.779  0.00  0.00    +0.231 C 
ATOM     16  N   UNL     1       7.378   5.559  -8.053  0.00  0.00    -0.287 N 
ATOM     17  C   UNL     1       7.903   5.984  -6.809  0.00  0.00    +0.238 C 
ATOM     18  O   UNL     1       8.915   5.484  -6.318  0.00  0.00    -0.274 OA
ATOM     19  C   UNL     1       7.140   7.090  -6.028  0.00  0.00    +0.191 C 
ATOM     20  C   UNL     1       8.056   8.333  -5.781  0.00  0.00    +0.148 C 
ATOM     21  C   UNL     1       8.814   7.945  -4.495  0.00  0.00    +0.034 C 
ATOM     22  C   UNL     1       9.409   9.129  -3.767  0.00  0.00    +0.012 C 
ATOM     23  C   UNL     1       7.751   7.188  -3.660  0.00  0.00    +0.114 C 
ATOM     24  N   UNL     1       6.733   6.645  -4.636  0.00  0.00    -0.285 N 
ATOM     25  C   UNL     1       5.537   5.936  -4.275  0.00  0.00    +0.239 C 
ATOM     26  O   UNL     1       4.834   6.233  -3.301  0.00  0.00    -0.273 OA
ATOM     27  C   UNL     1       5.149   4.665  -5.096  0.00  0.00    +0.187 C 
ATOM     28  N   UNL     1       5.100   3.441  -4.224  0.00  0.00    -0.300 N 
ATOM     29  C   UNL     1       3.923   2.699  -4.047  0.00  0.00    +0.237 C 
ATOM     30  O   UNL     1       2.791   2.978  -4.479  0.00  0.00    -0.274 OA
ATOM     31  C   UNL     1       3.869   1.506  -3.142  0.00  0.00    +0.190 C 
ATOM     32  N   UNL     1       2.916   1.689  -2.128  0.00  0.00    -0.300 N 
ATOM     33  C   UNL     1       2.041   0.660  -2.076  0.00  0.00    +0.234 C 
ATOM     34  O   UNL     1       1.902  -0.556  -2.477  0.00  0.00    -0.274 OA
ATOM     35  H   UNL     1       5.666   2.952 -13.391  0.00  0.00    +0.150 HD
ATOM     36  H   UNL     1       6.525   5.954  -8.452  0.00  0.00    +0.151 HD
ATOM     37  H   UNL     1       5.964   3.199  -3.740  0.00  0.00    +0.150 HD
ATOM     38  H   UNL     1       2.971   2.444  -1.459  0.00  0.00    +0.150 HD
ENDROOT
BRANCH  12  39
ATOM     39  N   UNL     1       5.121   4.711 -11.919  0.00  0.00    -0.300 N 
ATOM     40  C   UNL     1       4.998   6.042 -12.354  0.00  0.00    +0.245 C 
ATOM     41  O   UNL     1       4.020   6.415 -12.994  0.00  0.00    -0.270 OA
ATOM     42  H   UNL     1       4.402   4.017 -12.126  0.00  0.00    +0.150 HD
BRANCH  40  43
ATOM     43  C   UNL     1       6.074   7.048 -12.031  0.00  0.00    +0.037 A 
ATOM     44  C   UNL     1       5.780   8.315 -11.573  0.00  0.00    +0.013 A 
ATOM     45  C   UNL     1       6.804   9.261 -11.546  0.00  0.00    +0.009 A 
ATOM     46  C   UNL     1       8.141   8.923 -11.644  0.00  0.00    -0.018 A 
ATOM     47  C   UNL     1       8.413   7.644 -12.058  0.00  0.00    +0.009 A 
ATOM     48  C   UNL     1       7.402   6.727 -12.244  0.00  0.00    +0.013 A 
BRANCH  46  49
ATOM     49  C   UNL     1       9.189   9.875 -11.304  0.00  0.00    -0.018 A 
ATOM     50  C   UNL     1       9.287  10.448 -10.044  0.00  0.00    +0.009 A 
ATOM     51  C   UNL     1      10.144  11.528  -9.870  0.00  0.00    +0.009 A 
ATOM     52  C   UNL     1      11.124  11.858 -10.785  0.00  0.00    -0.018 A 
ATOM     53  C   UNL     1      11.041  11.242 -12.012  0.00  0.00    +0.009 A 
ATOM     54  C   UNL     1      10.112  10.249 -12.259  0.00  0.00    +0.009 A 
BRANCH  52  55
ATOM     55  C   UNL     1      12.185  12.785 -10.447  0.00  0.00    -0.018 A 
ATOM     56  C   UNL     1      12.320  13.911 -11.157  0.00  0.00    +0.012 A 
ATOM     57  C   UNL     1      13.212  14.736 -10.591  0.00  0.00    +0.046 A 
ATOM     58  C   UNL     1      14.198  14.599  -9.684  0.00  0.00    +0.121 A 
ATOM     59  C   UNL     1      14.073  13.441  -9.035  0.00  0.00    +0.046 A 
ATOM     60  C   UNL     1      13.061  12.550  -9.376  0.00  0.00    +0.012 A 
BRANCH  58  61
ATOM     61  O   UNL     1      15.198  15.457  -9.370  0.00  0.00    -0.492 OA
BRANCH  61  62
ATOM     62  C   UNL     1      15.383  16.671 -10.103  0.00  0.00    +0.229 C 
BRANCH  62  63
ATOM     63  C   UNL     1      15.739  16.396 -11.552  0.00  0.00    +0.041 C 
BRANCH  63  64
ATOM     64  C   UNL     1      14.685  15.681 -12.309  0.00  0.00    +0.003 C 
BRANCH  64  65
ATOM     65  C   UNL     1      13.249  16.624 -12.262  0.00  0.00    -0.003 C 
ATOM     66  C   UNL     1      13.499  17.846 -12.912  0.00  0.00    +0.004 C 
ENDBRANCH  64  65
ENDBRANCH  63  64
ENDBRANCH  62  63
ENDBRANCH  61  62
ENDBRANCH  58  61
ENDBRANCH  52  55
ENDBRANCH  46  49
ENDBRANCH  40  43
ENDBRANCH  12  39
BRANCH   3  67
ATOM     67  O   UNL     1      -0.810  -1.843  -0.345  0.00  0.00    -0.390 OA
ATOM     68  H   UNL     1      -1.383  -1.706   0.733  0.00  0.00    +0.210 HD
ENDBRANCH   3  67
BRANCH  14  69
ATOM     69  O   UNL     1       7.755   2.201  -9.544  0.00  0.00    -0.387 OA
ATOM     70  H   UNL     1       8.150   2.578 -10.351  0.00  0.00    +0.210 HD
ENDBRANCH  14  69
BRANCH  15  71
ATOM     71  O   UNL     1       8.560   4.936 -10.006  0.00  0.00    -0.372 OA
ATOM     72  H   UNL     1       7.870   5.366 -10.459  0.00  0.00    +0.212 HD
ENDBRANCH  15  71
BRANCH  20  73
ATOM     73  O   UNL     1       7.273   9.521  -5.559  0.00  0.00    -0.389 OA
ATOM     74  H   UNL     1       7.142  10.103  -6.334  0.00  0.00    +0.210 HD
ENDBRANCH  20  73
BRANCH  27  75
ATOM     75  C   UNL     1       3.779   4.873  -5.731  0.00  0.00    +0.141 C 
ATOM     76  C   UNL     1       3.419   3.673  -6.599  0.00  0.00    +0.040 C 
BRANCH  75  77
ATOM     77  O   UNL     1       2.797   5.109  -4.706  0.00  0.00    -0.390 OA
ATOM     78  H   UNL     1       2.776   4.304  -4.131  0.00  0.00    +0.210 HD
ENDBRANCH  75  77
ENDBRANCH  27  75
BRANCH   8  79
ATOM     79  C   UNL     1       7.011   1.105 -11.987  0.00  0.00    +0.141 C 
ATOM     80  C   UNL     1       8.919   2.093 -12.837  0.00  0.00    +0.040 C 
BRANCH  79  81
ATOM     81  O   UNL     1       8.095   0.464 -11.526  0.00  0.00    -0.390 OA
ATOM     82  H   UNL     1       7.676   1.322 -11.226  0.00  0.00    +0.210 HD
ENDBRANCH  79  81
ENDBRANCH   8  79
BRANCH  31  83
ATOM     83  C   UNL     1       3.669   0.267  -3.973  0.00  0.00    +0.176 C 
BRANCH  83  84
ATOM     84  O   UNL     1       2.526   0.207  -4.314  0.00  0.00    -0.387 OA
ATOM     85  H   UNL     1       2.364   1.372  -3.966  0.00  0.00    +0.210 HD
ENDBRANCH  83  84
BRANCH  83  86
ATOM     86  C   UNL     1       3.922  -1.035  -3.402  0.00  0.00    +0.175 C 
BRANCH  86  87
ATOM     87  C   UNL     1       5.393  -1.023  -3.483  0.00  0.00    -0.016 A 
ATOM     88  C   UNL     1       6.094  -2.199  -3.516  0.00  0.00    +0.010 A 
ATOM     89  C   UNL     1       7.483  -2.196  -3.613  0.00  0.00    +0.046 A 
ATOM     90  C   UNL     1       8.158  -0.986  -3.676  0.00  0.00    +0.117 A 
ATOM     91  C   UNL     1       7.477   0.202  -3.611  0.00  0.00    +0.046 A 
ATOM     92  C   UNL     1       6.131   0.150  -3.542  0.00  0.00    +0.010 A 
BRANCH  90  93
ATOM     93  O   UNL     1       9.510  -0.885  -3.791  0.00  0.00    -0.507 OA
ATOM     94  H   UNL     1      10.002  -1.724  -3.845  0.00  0.00    +0.292 HD
ENDBRANCH  90  93
ENDBRANCH  86  87
BRANCH  86  95
ATOM     95  O   UNL     1       3.359  -2.127  -4.135  0.00  0.00    -0.385 OA
ATOM     96  H   UNL     1       2.382  -2.087  -4.076  0.00  0.00    +0.210 HD
ENDBRANCH  86  95
ENDBRANCH  83  86
ENDBRANCH  31  83
TORSDOF 23
