REMARK  Name = 
REMARK  9 active torsions:
REMARK  status: ('A' for Active; 'I' for Inactive)
REMARK    1  A    between atoms: C_1  and  C_2
REMARK    2  A    between atoms: C_2  and  O_3
REMARK    3  A    between atoms: O_3  and  C_4
REMARK    4  A    between atoms: C_4  and  C_6
REMARK    5  A    between atoms: C_6  and  C_21
REMARK    6  A    between atoms: N_9  and  C_10
REMARK    7  A    between atoms: C_10  and  C_11
REMARK    8  A    between atoms: C_11  and  C_12
REMARK    9  A    between atoms: C_15  and  N_16
REMARK                            x       y       z     vdW  Elec       q    Type
REMARK                         _______ _______ _______ _____ _____    ______ ____
ROOT
ATOM      1  C   UNL     1      -1.496   0.709  -0.854  0.00  0.00    +0.095 C 
ATOM      2  C   UNL     1      -1.067   0.668   0.638  0.00  0.00    +0.038 C 
ATOM      3  C   UNL     1      -1.188  -0.737   1.249  0.00  0.00    +0.086 C 
ATOM      4  N   UNL     1      -0.473  -1.762   0.466  0.00  0.00    -0.302 NA
ATOM      5  C   UNL     1      -0.665  -1.735  -0.998  0.00  0.00    +0.086 C 
ATOM      6  C   UNL     1      -0.604  -0.320  -1.602  0.00  0.00    +0.038 C 
ENDROOT
BRANCH   1   7
ATOM      7  C   UNL     1      -1.300   2.097  -1.496  0.00  0.00    -0.031 A 
ATOM      8  C   UNL     1      -1.657   2.287  -2.851  0.00  0.00    +0.005 A 
ATOM      9  C   UNL     1      -1.505   3.530  -3.471  0.00  0.00    +0.000 A 
ATOM     10  C   UNL     1      -0.998   4.612  -2.754  0.00  0.00    +0.000 A 
ATOM     11  C   UNL     1      -0.646   4.455  -1.414  0.00  0.00    +0.000 A 
ATOM     12  C   UNL     1      -0.796   3.215  -0.786  0.00  0.00    +0.005 A 
ENDBRANCH   1   7
BRANCH   1  13
ATOM     13  C   UNL     1      -2.976   0.371  -0.962  0.00  0.00    +0.318 C 
ATOM     14  O   UNL     1      -3.398  -0.381  -1.884  0.00  0.00    -0.250 OA
BRANCH  13  15
ATOM     15  O   UNL     1      -3.880   0.973  -0.078  0.00  0.00    -0.464 OA
BRANCH  15  17
ATOM     16  C   UNL     1      -5.826   1.711  -1.323  0.00  0.00    +0.048 C 
ATOM     17  C   UNL     1      -5.295   0.840  -0.190  0.00  0.00    +0.229 C 
ENDBRANCH  15  17
ENDBRANCH  13  15
ENDBRANCH   1  13
BRANCH   4  18
ATOM     18  C   UNL     1       0.851  -2.190   0.964  0.00  0.00    +0.089 C 
BRANCH  18  19
ATOM     19  C   UNL     1       1.921  -1.093   0.891  0.00  0.00    +0.050 C 
BRANCH  19  20
ATOM     20  C   UNL     1       3.263  -1.643   1.294  0.00  0.00    -0.046 A 
ATOM     21  C   UNL     1       3.649  -1.652   2.644  0.00  0.00    +0.005 A 
ATOM     22  C   UNL     1       4.881  -2.193   3.022  0.00  0.00    +0.023 A 
ATOM     23  C   UNL     1       5.738  -2.740   2.057  0.00  0.00    +0.025 A 
ATOM     24  C   UNL     1       5.350  -2.745   0.710  0.00  0.00    +0.023 A 
ATOM     25  C   UNL     1       4.117  -2.205   0.331  0.00  0.00    +0.005 A 
BRANCH  23  26
ATOM     26  N   UNL     1       6.999  -3.293   2.445  0.00  0.00    -0.358 N 
ATOM     27  H   UNL     1       7.646  -3.699   1.733  0.00  0.00    +0.142 HD
ATOM     28  H   UNL     1       7.295  -3.298   3.446  0.00  0.00    +0.142 HD
ENDBRANCH  23  26
ENDBRANCH  19  20
ENDBRANCH  18  19
ENDBRANCH   4  18
TORSDOF 8
