REMARK  Name = 
REMARK  11 active torsions:
REMARK  status: ('A' for Active; 'I' for Inactive)
REMARK    1  A    between atoms: C_2  and  C_3
REMARK    2  A    between atoms: C_3  and  C_4
REMARK    3  A    between atoms: C_4  and  C_5
REMARK    4  A    between atoms: C_5  and  C_6
REMARK    5  A    between atoms: C_5  and  C_9
REMARK    6  A    between atoms: C_6  and  C_7
REMARK    7  A    between atoms: C_7  and  C_8
REMARK    8  A    between atoms: C_9  and  O_11
REMARK    9  A    between atoms: O_11  and  C_12
REMARK   10  A    between atoms: N_19  and  C_20
REMARK   11  A    between atoms: N_19  and  C_21
REMARK                            x       y       z     vdW  Elec       q    Type
REMARK                         _______ _______ _______ _____ _____    ______ ____
ROOT
ATOM      1 BR   UNL     1       0.935   0.110  -0.057  0.00  0.00    +0.000 Br
ENDROOT
TORSDOF 0
REMARK  Name = 
REMARK  11 active torsions:
REMARK  status: ('A' for Active; 'I' for Inactive)
REMARK    1  A    between atoms: C_2  and  C_3
REMARK    2  A    between atoms: C_3  and  C_4
REMARK    3  A    between atoms: C_4  and  C_5
REMARK    4  A    between atoms: C_5  and  C_6
REMARK    5  A    between atoms: C_5  and  C_9
REMARK    6  A    between atoms: C_6  and  C_7
REMARK    7  A    between atoms: C_7  and  C_8
REMARK    8  A    between atoms: C_9  and  O_11
REMARK    9  A    between atoms: O_11  and  C_12
REMARK   10  A    between atoms: N_19  and  C_20
REMARK   11  A    between atoms: N_19  and  C_21
REMARK                            x       y       z     vdW  Elec       q    Type
REMARK                         _______ _______ _______ _____ _____    ______ ____
ROOT
ATOM      1  O   UNL     1       1.691   7.048  -3.422  0.00  0.00    -0.461 OA
ENDROOT
BRANCH   1   2
ATOM      2  C   UNL     1       1.288   5.927  -4.254  0.00  0.00    +0.173 C 
ATOM      3  C   UNL     1       0.134   6.201  -5.161  0.00  0.00    +0.030 C 
ATOM      4  C   UNL     1      -0.610   4.832  -5.481  0.00  0.00    -0.062 C 
ATOM      5  C   UNL     1      -0.458   3.332  -4.836  0.00  0.00    -0.016 C 
ATOM      6  C   UNL     1       1.035   2.512  -5.635  0.00  0.00    -0.016 C 
ATOM      7  C   UNL     1       1.569   3.807  -5.421  0.00  0.00    -0.062 C 
ATOM      8  C   UNL     1       2.344   5.034  -5.017  0.00  0.00    +0.030 C 
ATOM      9  N   UNL     1       0.206   4.230  -6.523  0.00  0.00    +0.380 N 
ATOM     10  C   UNL     1       0.659   4.870  -7.763  0.00  0.00    -0.092 C 
ATOM     11  C   UNL     1      -0.809   2.876  -7.199  0.00  0.00    -0.092 C 
ENDBRANCH   1   2
BRANCH   1  12
ATOM     12  C   UNL     1       1.283   7.292  -2.120  0.00  0.00    +0.310 C 
ATOM     13  O   UNL     1       1.994   8.087  -1.427  0.00  0.00    -0.251 OA
BRANCH  12  14
ATOM     14  C   UNL     1      -0.011   6.715  -1.455  0.00  0.00    +0.098 C 
BRANCH  14  15
ATOM     15  C   UNL     1      -1.226   6.943  -2.366  0.00  0.00    +0.014 C 
BRANCH  15  17
ATOM     16  C   UNL     1      -2.953   7.424  -0.626  0.00  0.00    +0.004 C 
ATOM     17  C   UNL     1      -2.609   6.608  -1.844  0.00  0.00    -0.003 C 
ENDBRANCH  15  17
ENDBRANCH  14  15
BRANCH  14  18
ATOM     18  C   UNL     1       0.011   5.315  -0.752  0.00  0.00    +0.014 C 
BRANCH  18  19
ATOM     19  C   UNL     1       0.376   4.193  -1.676  0.00  0.00    -0.003 C 
ATOM     20  C   UNL     1       1.885   4.231  -1.917  0.00  0.00    +0.004 C 
ENDBRANCH  18  19
ENDBRANCH  14  18
ENDBRANCH  12  14
ENDBRANCH   1  12
TORSDOF 7
