REMARK  Name = 
REMARK  3 active torsions:
REMARK  status: ('A' for Active; 'I' for Inactive)
REMARK    1  A    between atoms: C_1  and  O_2
REMARK    2  A    between atoms: O_2  and  C_3
REMARK    3  A    between atoms: C_6  and  C_9
REMARK                            x       y       z     vdW  Elec       q    Type
REMARK                         _______ _______ _______ _____ _____    ______ ____
ROOT
ATOM      1  C   UNL     1      -0.765  -1.494   0.380  0.00  0.00    +0.161 C 
ATOM      2  C   UNL     1      -1.464  -0.668   1.427  0.00  0.00    +0.179 C 
ATOM      3  O   UNL     1      -1.137  -0.623   2.643  0.00  0.00    -0.291 OA
ATOM      4  C   UNL     1      -2.583   0.058   0.840  0.00  0.00    +0.029 A 
ATOM      5  C   UNL     1      -3.484   0.936   1.442  0.00  0.00    +0.012 A 
ATOM      6  C   UNL     1      -4.484   1.514   0.641  0.00  0.00    +0.001 A 
ATOM      7  C   UNL     1      -4.563   1.204  -0.733  0.00  0.00    +0.001 A 
ATOM      8  C   UNL     1      -3.642   0.316  -1.315  0.00  0.00    +0.012 A 
ATOM      9  C   UNL     1      -2.659  -0.243  -0.498  0.00  0.00    +0.029 A 
ATOM     10  C   UNL     1      -1.594  -1.177  -0.836  0.00  0.00    +0.179 C 
ATOM     11  O   UNL     1      -1.403  -1.664  -1.982  0.00  0.00    -0.291 OA
ENDROOT
BRANCH   1  15
ATOM     12  C   UNL     1       3.377  -0.320  -0.122  0.00  0.00    +0.120 A 
ATOM     13  C   UNL     1       3.042  -1.641   0.195  0.00  0.00    +0.046 A 
ATOM     14  C   UNL     1       1.705  -2.017   0.356  0.00  0.00    +0.008 A 
ATOM     15  C   UNL     1       0.677  -1.073   0.203  0.00  0.00    -0.029 A 
ATOM     16  C   UNL     1       1.014   0.256  -0.116  0.00  0.00    +0.008 A 
ATOM     17  C   UNL     1       2.350   0.630  -0.277  0.00  0.00    +0.046 A 
BRANCH  12  19
ATOM     18  C   UNL     1       5.217   1.306  -0.593  0.00  0.00    +0.277 C 
ATOM     19  O   UNL     1       4.733   0.006  -0.273  0.00  0.00    -0.495 OA
ENDBRANCH  12  19
ENDBRANCH   1  15
TORSDOF 2
