REMARK  Name = 
REMARK  5 active torsions:
REMARK  status: ('A' for Active; 'I' for Inactive)
REMARK    1  A    between atoms: C_1  and  N_2
REMARK    2  A    between atoms: C_1  and  C_16
REMARK    3  A    between atoms: N_2  and  C_3
REMARK    4  A    between atoms: N_2  and  C_10
REMARK    5  A    between atoms: C_3  and  C_4
REMARK                            x       y       z     vdW  Elec       q    Type
REMARK                         _______ _______ _______ _____ _____    ______ ____
ROOT
ATOM      1  N   UNL     1       0.244  -0.133  -1.407  0.00  0.00    -0.318 N 
ENDROOT
BRANCH   1   2
ATOM      2  C   UNL     1      -0.089   1.263  -1.351  0.00  0.00    +0.030 A 
ATOM      3  C   UNL     1      -1.025   1.728  -0.415  0.00  0.00    +0.023 A 
ATOM      4  C   UNL     1      -1.333   3.090  -0.347  0.00  0.00    +0.002 A 
ATOM      5  C   UNL     1      -0.707   3.993  -1.210  0.00  0.00    +0.000 A 
ATOM      6  C   UNL     1       0.229   3.536  -2.141  0.00  0.00    +0.002 A 
ATOM      7  C   UNL     1       0.540   2.175  -2.212  0.00  0.00    +0.023 A 
ENDBRANCH   1   2
BRANCH   1   8
ATOM      8  C   UNL     1      -0.735  -1.088  -1.939  0.00  0.00    +0.176 C 
BRANCH   8   9
ATOM      9  C   UNL     1      -1.343  -1.892  -0.833  0.00  0.00    +0.107 C 
ATOM     10  N   UNL     1      -0.814  -2.978  -0.391  0.00  0.00    -0.270 NA
ATOM     11  C   UNL     1      -1.619  -3.505   0.705  0.00  0.00    +0.162 C 
ATOM     12  C   UNL     1      -2.779  -2.510   0.864  0.00  0.00    +0.126 C 
ATOM     13  N   UNL     1      -2.523  -1.514  -0.156  0.00  0.00    -0.330 N 
ATOM     14  H   UNL     1      -3.131  -0.695  -0.383  0.00  0.00    +0.147 HD
ENDBRANCH   8   9
ENDBRANCH   1   8
BRANCH   1  15
ATOM     15  C   UNL     1       1.596  -0.575  -1.040  0.00  0.00    +0.140 C 
BRANCH  15  16
ATOM     16  C   UNL     1       1.872  -0.282   0.413  0.00  0.00    -0.030 A 
ATOM     17  C   UNL     1       1.618  -1.253   1.396  0.00  0.00    +0.005 A 
ATOM     18  C   UNL     1       1.828  -0.960   2.747  0.00  0.00    +0.000 A 
ATOM     19  C   UNL     1       2.288   0.303   3.127  0.00  0.00    +0.000 A 
ATOM     20  C   UNL     1       2.542   1.275   2.156  0.00  0.00    +0.000 A 
ATOM     21  C   UNL     1       2.335   0.986   0.804  0.00  0.00    +0.005 A 
ENDBRANCH  15  16
ENDBRANCH   1  15
TORSDOF 5
