REMARK  Name = 
REMARK  3 active torsions:
REMARK  status: ('A' for Active; 'I' for Inactive)
REMARK    1  A    between atoms: C_1  and  N_2
REMARK    2  A    between atoms: N_3  and  C_9
REMARK    3  A    between atoms: C_7  and  C_8
REMARK                            x       y       z     vdW  Elec       q    Type
REMARK                         _______ _______ _______ _____ _____    ______ ____
ROOT
ATOM      1  C   UNL     1      -1.268  -1.139  -1.123  0.00  0.00    +0.171 C 
ATOM      2  N   UNL     1      -1.266  -0.160  -0.033  0.00  0.00    -0.284 N 
ATOM      3  N   UNL     1      -0.188   0.430   0.475  0.00  0.00    -0.217 N 
ATOM      4  C   UNL     1      -0.594   1.278   1.441  0.00  0.00    +0.272 A 
ATOM      5  O   UNL     1       0.178   1.996   2.131  0.00  0.00    -0.266 OA
ATOM      6  C   UNL     1      -1.965   1.227   1.577  0.00  0.00    +0.094 A 
ATOM      7  C   UNL     1      -2.356   0.291   0.634  0.00  0.00    +0.038 A 
ATOM      8  C   UNL     1      -3.769  -0.119   0.358  0.00  0.00    +0.065 C 
ENDROOT
BRANCH   3   9
ATOM      9  C   UNL     1       1.174   0.195   0.075  0.00  0.00    +0.067 A 
ATOM     10  C   UNL     1       2.002   1.271  -0.283  0.00  0.00    +0.028 A 
ATOM     11  C   UNL     1       3.328   1.044  -0.661  0.00  0.00    +0.002 A 
ATOM     12  C   UNL     1       3.839  -0.256  -0.679  0.00  0.00    +0.000 A 
ATOM     13  C   UNL     1       3.024  -1.332  -0.314  0.00  0.00    +0.002 A 
ATOM     14  C   UNL     1       1.697  -1.109   0.065  0.00  0.00    +0.028 A 
ENDBRANCH   3   9
TORSDOF 1
