REMARK  Name = 
REMARK  10 active torsions:
REMARK  status: ('A' for Active; 'I' for Inactive)
REMARK    1  A    between atoms: C_2  and  C_5
REMARK    2  A    between atoms: C_7  and  N_11
REMARK    3  A    between atoms: N_14  and  C_15
REMARK    4  A    between atoms: C_15  and  C_16
REMARK    5  A    between atoms: C_16  and  O_17
REMARK    6  A    between atoms: O_17  and  C_18
REMARK    7  A    between atoms: C_18  and  C_20
REMARK    8  A    between atoms: C_25  and  N_26
REMARK    9  A    between atoms: N_26  and  C_27
REMARK   10  A    between atoms: C_31  and  C_37
REMARK                            x       y       z     vdW  Elec       q    Type
REMARK                         _______ _______ _______ _____ _____    ______ ____
ROOT
ATOM      1  C   UNL     1      -2.733  -3.184  -1.624  0.00  0.00    +0.080 A 
ATOM      2  C   UNL     1      -3.224  -3.896  -2.735  0.00  0.00    +0.017 A 
ATOM      3  C   UNL     1      -4.574  -4.245  -2.817  0.00  0.00    +0.001 A 
ATOM      4  C   UNL     1      -5.450  -3.901  -1.790  0.00  0.00    +0.002 A 
ATOM      5  C   UNL     1      -4.981  -3.212  -0.672  0.00  0.00    +0.024 A 
ATOM      6  C   UNL     1      -3.623  -2.847  -0.570  0.00  0.00    +0.045 A 
ENDROOT
BRANCH   1   7
ATOM      7  C   UNL     1      -1.312  -2.769  -1.610  0.00  0.00    +0.341 C 
ATOM      8  O   UNL     1      -0.447  -3.463  -2.217  0.00  0.00    -0.245 OA
BRANCH   7   9
ATOM      9  O   UNL     1      -0.937  -1.595  -0.942  0.00  0.00    -0.460 OA
BRANCH   9  10
ATOM     10  C   UNL     1       0.410  -1.149  -0.835  0.00  0.00    +0.248 C 
BRANCH  10  11
ATOM     11  C   UNL     1       0.413   0.258  -0.217  0.00  0.00    +0.125 C 
BRANCH  11  15
ATOM     12  N   UNL     1       4.505   1.483  -0.082  0.00  0.00    -0.327 N 
ATOM     13  C   UNL     1       3.629   2.058  -1.117  0.00  0.00    +0.120 C 
ATOM     14  C   UNL     1       2.404   1.169  -1.357  0.00  0.00    +0.103 C 
ATOM     15  N   UNL     1       1.752   0.870  -0.070  0.00  0.00    -0.296 NA
ATOM     16  C   UNL     1       2.661   0.098   0.795  0.00  0.00    +0.103 C 
ATOM     17  C   UNL     1       3.875   0.961   1.142  0.00  0.00    +0.120 C 
BRANCH  12  20
ATOM     18  C   UNL     1       8.231   1.264   0.469  0.00  0.00    +0.057 A 
ATOM     19  C   UNL     1       6.870   0.910   0.385  0.00  0.00    +0.035 A 
ATOM     20  C   UNL     1       5.906   1.840  -0.051  0.00  0.00    +0.030 A 
ATOM     21  C   UNL     1       6.331   3.123  -0.445  0.00  0.00    +0.023 A 
ATOM     22  C   UNL     1       7.683   3.466  -0.403  0.00  0.00    +0.002 A 
ATOM     23  C   UNL     1       8.630   2.542   0.046  0.00  0.00    +0.012 A 
BRANCH  18  25
ATOM     24  F   UNL     1       9.718  -0.449  -0.181  0.00  0.00    -0.166 F 
ATOM     25  C   UNL     1       9.258   0.253   0.918  0.00  0.00    +0.417 C 
ATOM     26  F   UNL     1       8.704  -0.639   1.822  0.00  0.00    -0.166 F 
ATOM     27  F   UNL     1      10.326   0.881   1.536  0.00  0.00    -0.166 F 
ENDBRANCH  18  25
ENDBRANCH  12  20
ENDBRANCH  11  15
ENDBRANCH  10  11
ENDBRANCH   9  10
ENDBRANCH   7   9
ENDBRANCH   1   7
BRANCH   6  28
ATOM     28  N   UNL     1      -3.141  -2.196   0.622  0.00  0.00    -0.313 N 
ATOM     29  H   UNL     1      -2.224  -2.518   1.005  0.00  0.00    +0.152 HD
BRANCH  28  30
ATOM     30  C   UNL     1      -3.971  -1.395   1.481  0.00  0.00    +0.042 A 
ATOM     31  C   UNL     1      -4.734  -0.303   0.995  0.00  0.00    +0.022 A 
ATOM     32  C   UNL     1      -4.668   0.135  -0.342  0.00  0.00    +0.012 A 
ATOM     33  C   UNL     1      -5.457   1.203  -0.777  0.00  0.00    +0.013 A 
ATOM     34  C   UNL     1      -6.331   1.856   0.108  0.00  0.00    +0.057 A 
ATOM     35  C   UNL     1      -6.353   1.466   1.457  0.00  0.00    +0.040 A 
ATOM     36  C   UNL     1      -5.564   0.399   1.901  0.00  0.00    +0.073 A 
ATOM     37  N   UNL     1      -5.583   0.051   3.215  0.00  0.00    -0.255 NA
ATOM     38  C   UNL     1      -4.830  -0.967   3.701  0.00  0.00    +0.113 A 
ATOM     39  C   UNL     1      -4.012  -1.702   2.846  0.00  0.00    +0.043 A 
BRANCH  34  40
ATOM     40  C   UNL     1      -7.160   3.030  -0.350  0.00  0.00    +0.417 C 
ATOM     41  F   UNL     1      -7.393   2.971  -1.713  0.00  0.00    -0.166 F 
ATOM     42  F   UNL     1      -8.382   3.039   0.299  0.00  0.00    -0.166 F 
ATOM     43  F   UNL     1      -6.485   4.201  -0.058  0.00  0.00    -0.166 F 
ENDBRANCH  34  40
ENDBRANCH  28  30
ENDBRANCH   6  28
TORSDOF 10
