REMARK  Name = 
REMARK  6 active torsions:
REMARK  status: ('A' for Active; 'I' for Inactive)
REMARK    1  A    between atoms: C_1  and  O_2
REMARK    2  A    between atoms: O_2  and  C_3
REMARK    3  A    between atoms: C_6  and  N_9
REMARK    4  A    between atoms: C_11  and  C_12
REMARK    5  A    between atoms: N_19  and  C_22
REMARK    6  A    between atoms: C_25  and  N_28
REMARK                            x       y       z     vdW  Elec       q    Type
REMARK                         _______ _______ _______ _____ _____    ______ ____
ROOT
ATOM      1  N   UNL     1       3.610  -1.419  -0.052  0.00  0.00    -0.227 N 
ATOM      2  N   UNL     1       4.345  -2.450  -0.448  0.00  0.00    -0.161 NA
ATOM      3  C   UNL     1       3.522  -3.509  -0.627  0.00  0.00    +0.151 A 
ATOM      4  C   UNL     1       2.224  -3.128  -0.318  0.00  0.00    +0.017 A 
ATOM      5  C   UNL     1       2.317  -1.805   0.013  0.00  0.00    +0.133 A 
ATOM      6  C   UNL     1       1.108  -0.992   0.189  0.00  0.00    +0.270 C 
ATOM      7  O   UNL     1       1.177   0.258   0.332  0.00  0.00    -0.268 OA
ATOM      8  N   UNL     1      -0.168  -1.668   0.153  0.00  0.00    -0.266 N 
ATOM      9  C   UNL     1      -0.204  -3.141   0.288  0.00  0.00    +0.119 C 
ATOM     10  C   UNL     1       0.915  -3.833  -0.523  0.00  0.00    +0.059 C 
ENDROOT
BRANCH   1  14
ATOM     11  C   UNL     1       5.312   2.383   0.794  0.00  0.00    +0.120 A 
ATOM     12  C   UNL     1       5.636   1.704  -0.396  0.00  0.00    +0.048 A 
ATOM     13  C   UNL     1       5.072   0.455  -0.670  0.00  0.00    +0.031 A 
ATOM     14  C   UNL     1       4.165  -0.126   0.227  0.00  0.00    +0.066 A 
ATOM     15  C   UNL     1       3.860   0.540   1.423  0.00  0.00    +0.031 A 
ATOM     16  C   UNL     1       4.425   1.788   1.699  0.00  0.00    +0.048 A 
BRANCH  11  18
ATOM     17  C   UNL     1       6.754   4.361   0.285  0.00  0.00    +0.277 C 
ATOM     18  O   UNL     1       5.849   3.639   1.114  0.00  0.00    -0.495 OA
ENDBRANCH  11  18
ENDBRANCH   1  14
BRANCH   8  19
ATOM     19  C   UNL     1      -1.398  -0.916   0.151  0.00  0.00    +0.037 A 
ATOM     20  C   UNL     1      -2.427  -1.229   1.054  0.00  0.00    +0.025 A 
ATOM     21  C   UNL     1      -3.621  -0.501   1.047  0.00  0.00    +0.025 A 
ATOM     22  C   UNL     1      -3.807   0.553   0.137  0.00  0.00    +0.036 A 
ATOM     23  C   UNL     1      -2.780   0.858  -0.772  0.00  0.00    +0.025 A 
ATOM     24  C   UNL     1      -1.588   0.130  -0.766  0.00  0.00    +0.025 A 
BRANCH  22  25
ATOM     25  N   UNL     1      -5.040   1.302   0.117  0.00  0.00    -0.271 N 
ATOM     26  C   UNL     1      -6.321   0.601   0.290  0.00  0.00    +0.113 C 
ATOM     27  C   UNL     1      -7.460   1.333  -0.425  0.00  0.00    +0.020 C 
ATOM     28  C   UNL     1      -7.515   2.796   0.018  0.00  0.00    +0.011 C 
ATOM     29  C   UNL     1      -6.218   3.523  -0.341  0.00  0.00    +0.096 C 
ATOM     30  C   UNL     1      -5.013   2.744   0.104  0.00  0.00    +0.220 C 
ATOM     31  O   UNL     1      -3.960   3.366   0.409  0.00  0.00    -0.275 OA
ENDBRANCH  22  25
ENDBRANCH   8  19
BRANCH   3  32
ATOM     32  C   UNL     1       3.977  -4.818  -1.130  0.00  0.00    +0.262 C 
ATOM     33  N   UNL     1       5.362  -5.052  -1.389  0.00  0.00    -0.324 N 
ATOM     34  O   UNL     1       3.147  -5.741  -1.340  0.00  0.00    -0.269 OA
ATOM     35  H   UNL     1       5.679  -5.978  -1.753  0.00  0.00    +0.145 HD
ATOM     36  H   UNL     1       6.078  -4.314  -1.208  0.00  0.00    +0.145 HD
ENDBRANCH   3  32
TORSDOF 5
