REMARK  Name = 
REMARK  3 active torsions:
REMARK  status: ('A' for Active; 'I' for Inactive)
REMARK    1  A    between atoms: C_5  and  O_6
REMARK    2  A    between atoms: C_7  and  O_8
REMARK    3  A    between atoms: N_18  and  C_19
REMARK                            x       y       z     vdW  Elec       q    Type
REMARK                         _______ _______ _______ _____ _____    ______ ____
ROOT
ATOM      1  C   UNL     1      -0.859  -0.988   0.300  0.00  0.00    +0.092 C 
ATOM      2  C   UNL     1       0.452  -1.516   0.899  0.00  0.00    +0.059 C 
ATOM      3  C   UNL     1       1.620  -1.075   0.046  0.00  0.00    -0.034 A 
ATOM      4  C   UNL     1       1.595   0.188  -0.596  0.00  0.00    +0.031 A 
ATOM      5  C   UNL     1       2.626   0.514  -1.514  0.00  0.00    +0.166 A 
ATOM      6  C   UNL     1       3.745  -0.345  -1.641  0.00  0.00    +0.159 A 
ATOM      7  C   UNL     1       3.782  -1.548  -0.932  0.00  0.00    +0.049 A 
ATOM      8  C   UNL     1       2.724  -1.920  -0.109  0.00  0.00    +0.008 A 
ATOM      9  C   UNL     1       0.434   1.095  -0.313  0.00  0.00    -0.009 A 
ATOM     10  C   UNL     1       0.546   2.499  -0.378  0.00  0.00    +0.009 A 
ATOM     11  C   UNL     1      -0.533   3.313  -0.034  0.00  0.00    +0.001 A 
ATOM     12  C   UNL     1      -1.715   2.750   0.443  0.00  0.00    +0.004 A 
ATOM     13  C   UNL     1      -1.823   1.362   0.592  0.00  0.00    -0.041 A 
ATOM     14  C   UNL     1      -3.040   0.767   1.226  0.00  0.00    +0.051 C 
ATOM     15  C   UNL     1      -2.647  -0.503   1.983  0.00  0.00    +0.089 C 
ATOM     16  N   UNL     1      -2.012  -1.498   1.095  0.00  0.00    -0.298 NA
ATOM     17  C   UNL     1      -3.000  -2.195   0.253  0.00  0.00    +0.105 C 
ATOM     18  C   UNL     1      -0.765   0.528   0.184  0.00  0.00    -0.019 A 
ENDROOT
BRANCH   5  19
ATOM     19  O   UNL     1       2.493   1.648  -2.319  0.00  0.00    -0.503 OA
ATOM     20  H   UNL     1       3.123   1.888  -3.070  0.00  0.00    +0.292 HD
ENDBRANCH   5  19
BRANCH   6  21
ATOM     21  O   UNL     1       4.839  -0.041  -2.454  0.00  0.00    -0.503 OA
ATOM     22  H   UNL     1       4.963   0.843  -2.927  0.00  0.00    +0.292 HD
ENDBRANCH   6  21
TORSDOF 2
