REMARK  Name = 
REMARK  2 active torsions:
REMARK  status: ('A' for Active; 'I' for Inactive)
REMARK    1  A    between atoms: N_1  and  C_2
REMARK    2  A    between atoms: C_6  and  N_7
REMARK                            x       y       z     vdW  Elec       q    Type
REMARK                         _______ _______ _______ _____ _____    ______ ____
ROOT
ATOM      1  C   UNL     1      -3.301   0.011   0.193  0.00  0.00    +0.027 A 
ATOM      2  C   UNL     1      -2.640  -0.031   1.429  0.00  0.00    +0.044 A 
ATOM      3  C   UNL     1      -1.284   0.300   1.517  0.00  0.00    +0.065 A 
ATOM      4 CL   UNL     1      -0.489   0.218   3.083  0.00  0.00    -0.082 Cl
ATOM      5  C   UNL     1      -0.570   0.667   0.361  0.00  0.00    +0.071 A 
ATOM      6  C   UNL     1      -1.242   0.727  -0.877  0.00  0.00    +0.065 A 
ATOM      7 CL   UNL     1      -0.430   1.281  -2.337  0.00  0.00    -0.082 Cl
ATOM      8  C   UNL     1      -2.599   0.394  -0.953  0.00  0.00    +0.044 A 
ENDROOT
BRANCH   5   9
ATOM      9  N   UNL     1       0.820   1.007   0.460  0.00  0.00    -0.285 N 
ATOM     10  C   UNL     1       1.845   0.253  -0.200  0.00  0.00    +0.180 C 
ATOM     11  N   UNL     1       1.604  -0.808  -0.890  0.00  0.00    -0.254 NA
ATOM     12  C   UNL     1       2.858  -1.345  -1.405  0.00  0.00    +0.163 C 
ATOM     13  C   UNL     1       3.950  -0.399  -0.876  0.00  0.00    +0.127 C 
ATOM     14  N   UNL     1       3.213   0.591  -0.116  0.00  0.00    -0.315 N 
ATOM     15  H   UNL     1       1.111   1.726   1.158  0.00  0.00    +0.155 HD
ATOM     16  H   UNL     1       3.619   1.403   0.399  0.00  0.00    +0.149 HD
ENDBRANCH   5   9
BRANCH   1  17
ATOM     17  N   UNL     1      -4.686  -0.324   0.089  0.00  0.00    -0.358 N 
ATOM     18  H   UNL     1      -5.242  -0.612   0.925  0.00  0.00    +0.142 HD
ATOM     19  H   UNL     1      -5.242  -0.612   0.925  0.00  0.00    +0.142 HD
ENDBRANCH   1  17
TORSDOF 2
