REMARK  Name = 
REMARK  9 active torsions:
REMARK  status: ('A' for Active; 'I' for Inactive)
REMARK    1  A    between atoms: C_1  and  C_2
REMARK    2  A    between atoms: C_2  and  O_3
REMARK    3  A    between atoms: C_2  and  C_24
REMARK    4  A    between atoms: O_3  and  C_4
REMARK    5  A    between atoms: N_8  and  C_9
REMARK    6  A    between atoms: C_9  and  C_10
REMARK    7  A    between atoms: C_16  and  C_17
REMARK    8  A    between atoms: C_26  and  C_34
REMARK    9  A    between atoms: C_28  and  C_30
REMARK                            x       y       z     vdW  Elec       q    Type
REMARK                         _______ _______ _______ _____ _____    ______ ____
ROOT
ATOM      1  C   UNL     1      -0.588   2.006  -1.178  0.00  0.00    +0.272 C 
ATOM      2  O   UNL     1      -0.825   2.276  -2.553  0.00  0.00    -0.348 OA
ATOM      3  C   UNL     1      -2.132   1.950  -3.004  0.00  0.00    +0.178 C 
ATOM      4  C   UNL     1      -3.168   1.822  -1.889  0.00  0.00    +0.113 C 
ATOM      5  N   UNL     1      -2.786   0.755  -0.934  0.00  0.00    -0.282 NA
ATOM      6  C   UNL     1      -1.317   0.717  -0.670  0.00  0.00    +0.144 C 
ENDROOT
BRANCH   6   7
ATOM      7  C   UNL     1      -0.724  -0.598  -1.186  0.00  0.00    -0.025 A 
ATOM      8  C   UNL     1      -0.054  -0.713  -2.425  0.00  0.00    +0.008 A 
ATOM      9  C   UNL     1       0.450  -1.947  -2.852  0.00  0.00    +0.038 A 
ATOM     10  C   UNL     1       0.294  -3.084  -2.057  0.00  0.00    +0.123 A 
ATOM     11  F   UNL     1       0.781  -4.278  -2.477  0.00  0.00    -0.205 F 
ATOM     12  C   UNL     1      -0.352  -2.987  -0.825  0.00  0.00    +0.038 A 
ATOM     13  C   UNL     1      -0.850  -1.755  -0.390  0.00  0.00    +0.008 A 
ENDBRANCH   6   7
BRANCH   1  14
ATOM     14  O   UNL     1       0.814   1.883  -0.994  0.00  0.00    -0.342 OA
BRANCH  14  16
ATOM     15  C   UNL     1       1.883   3.584   0.344  0.00  0.00    +0.043 C 
ATOM     16  C   UNL     1       1.220   2.200   0.330  0.00  0.00    +0.148 C 
BRANCH  16  17
ATOM     17  C   UNL     1       2.148   1.102   0.817  0.00  0.00    -0.018 A 
ATOM     18  C   UNL     1       1.621   0.069   1.612  0.00  0.00    +0.018 A 
ATOM     19  C   UNL     1       2.420  -1.014   2.015  0.00  0.00    +0.056 A 
ATOM     20  C   UNL     1       3.760  -1.068   1.594  0.00  0.00    +0.024 A 
ATOM     21  C   UNL     1       4.316  -0.034   0.816  0.00  0.00    +0.056 A 
ATOM     22  C   UNL     1       3.492   1.024   0.399  0.00  0.00    +0.018 A 
BRANCH  21  23
ATOM     23  C   UNL     1       5.754  -0.098   0.356  0.00  0.00    +0.417 C 
ATOM     24  F   UNL     1       6.306   1.176   0.311  0.00  0.00    -0.166 F 
ATOM     25  F   UNL     1       5.809  -0.661  -0.910  0.00  0.00    -0.166 F 
ATOM     26  F   UNL     1       6.516  -0.866   1.223  0.00  0.00    -0.166 F 
ENDBRANCH  21  23
BRANCH  19  27
ATOM     27  C   UNL     1       1.823  -2.160   2.801  0.00  0.00    +0.417 C 
ATOM     28  F   UNL     1       2.752  -2.670   3.694  0.00  0.00    -0.166 F 
ATOM     29  F   UNL     1       0.713  -1.749   3.525  0.00  0.00    -0.166 F 
ATOM     30  F   UNL     1       1.442  -3.163   1.924  0.00  0.00    -0.166 F 
ENDBRANCH  19  27
ENDBRANCH  16  17
ENDBRANCH  14  16
ENDBRANCH   1  14
BRANCH   5  31
ATOM     31  C   UNL     1      -3.580   0.922   0.312  0.00  0.00    +0.161 C 
BRANCH  31  32
ATOM     32  C   UNL     1      -3.641  -0.359   1.087  0.00  0.00    +0.145 A 
ATOM     33  N   UNL     1      -3.056  -0.534   2.294  0.00  0.00    -0.155 NA
ATOM     34  N   UNL     1      -3.324  -1.786   2.643  0.00  0.00    -0.227 N 
ATOM     35  C   UNL     1      -4.059  -2.338   1.659  0.00  0.00    +0.342 A 
ATOM     36  O   UNL     1      -4.499  -3.521   1.683  0.00  0.00    -0.245 OA
ATOM     37  N   UNL     1      -4.281  -1.474   0.658  0.00  0.00    -0.293 N 
ATOM     38  H   UNL     1      -3.020  -2.236   3.533  0.00  0.00    +0.194 HD
ATOM     39  H   UNL     1      -4.814  -1.623  -0.231  0.00  0.00    +0.172 HD
ENDBRANCH  31  32
ENDBRANCH   5  31
TORSDOF 8
