REMARK  Name = 
REMARK  10 active torsions:
REMARK  status: ('A' for Active; 'I' for Inactive)
REMARK    1  A    between atoms: C_1  and  C_2
REMARK    2  A    between atoms: C_2  and  N_3
REMARK    3  A    between atoms: N_3  and  C_4
REMARK    4  A    between atoms: N_3  and  C_6
REMARK    5  A    between atoms: C_4  and  C_5
REMARK    6  A    between atoms: C_6  and  C_7
REMARK    7  A    between atoms: C_7  and  C_8
REMARK    8  A    between atoms: C_8  and  N_9
REMARK    9  A    between atoms: N_9  and  C_10
REMARK   10  A    between atoms: N_9  and  C_19
REMARK                            x       y       z     vdW  Elec       q    Type
REMARK                         _______ _______ _______ _____ _____    ______ ____
ROOT
ATOM      1  N   UNL     1       1.093  -1.000   0.382  0.00  0.00    -0.326 N 
ENDROOT
BRANCH   1   2
ATOM      2  C   UNL     1       2.148   0.037   0.426  0.00  0.00    +0.082 C 
ATOM      3  C   UNL     1       1.605   1.417   0.858  0.00  0.00    +0.058 C 
ATOM      4  C   UNL     1       2.456   2.365   0.104  0.00  0.00    -0.042 A 
ATOM      5  C   UNL     1       2.544   3.748   0.286  0.00  0.00    +0.004 A 
ATOM      6  C   UNL     1       3.380   4.487  -0.566  0.00  0.00    +0.000 A 
ATOM      7  C   UNL     1       4.098   3.839  -1.588  0.00  0.00    +0.000 A 
ATOM      8  C   UNL     1       3.982   2.451  -1.761  0.00  0.00    +0.004 A 
ATOM      9  C   UNL     1       3.156   1.735  -0.893  0.00  0.00    -0.042 A 
ATOM     10  C   UNL     1       2.862   0.284  -0.930  0.00  0.00    +0.058 C 
ENDBRANCH   1   2
BRANCH   1  11
ATOM     11  C   UNL     1       1.177  -2.041  -0.609  0.00  0.00    +0.030 A 
ATOM     12  C   UNL     1       2.090  -3.094  -0.444  0.00  0.00    +0.023 A 
ATOM     13  C   UNL     1       2.178  -4.106  -1.405  0.00  0.00    +0.002 A 
ATOM     14  C   UNL     1       1.359  -4.068  -2.537  0.00  0.00    +0.000 A 
ATOM     15  C   UNL     1       0.452  -3.018  -2.710  0.00  0.00    +0.002 A 
ATOM     16  C   UNL     1       0.362  -2.005  -1.751  0.00  0.00    +0.023 A 
ENDBRANCH   1  11
BRANCH   1  17
ATOM     17  C   UNL     1       0.396  -1.350   1.637  0.00  0.00    +0.106 C 
BRANCH  17  18
ATOM     18  C   UNL     1      -0.913  -0.571   1.841  0.00  0.00    +0.034 C 
BRANCH  18  19
ATOM     19  C   UNL     1      -1.824  -0.589   0.608  0.00  0.00    +0.086 C 
BRANCH  19  20
ATOM     20  N   UNL     1      -3.145  -0.011   0.947  0.00  0.00    -0.303 NA
BRANCH  20  22
ATOM     21  C   UNL     1      -5.064  -0.469   2.433  0.00  0.00    +0.020 C 
ATOM     22  C   UNL     1      -4.073  -1.059   1.433  0.00  0.00    +0.081 C 
ENDBRANCH  20  22
BRANCH  20  23
ATOM     23  C   UNL     1      -3.720   0.721  -0.206  0.00  0.00    +0.081 C 
ATOM     24  C   UNL     1      -3.207   2.159  -0.226  0.00  0.00    +0.020 C 
ENDBRANCH  20  23
ENDBRANCH  19  20
ENDBRANCH  18  19
ENDBRANCH  17  18
ENDBRANCH   1  17
TORSDOF 8
