REMARK  Name = 
REMARK  5 active torsions:
REMARK  status: ('A' for Active; 'I' for Inactive)
REMARK    1  A    between atoms: C_1  and  C_2
REMARK    2  A    between atoms: C_2  and  C_3
REMARK    3  A    between atoms: C_2  and  C_4
REMARK    4  A    between atoms: C_4  and  C_5
REMARK    5  A    between atoms: C_5  and  C_6
REMARK                            x       y       z     vdW  Elec       q    Type
REMARK                         _______ _______ _______ _____ _____    ______ ____
ROOT
ATOM      1  C   UNL     1      -0.074  -0.271  -0.115  0.00  0.00    +0.129 C 
ATOM      2  C   UNL     1       0.415   0.650   1.006  0.00  0.00    +0.236 C 
ATOM      3  O   UNL     1       0.667   0.170   2.145  0.00  0.00    -0.274 OA
ATOM      4  N   UNL     1       0.558   2.059   0.813  0.00  0.00    -0.239 N 
ATOM      5  C   UNL     1       0.469   2.641  -0.483  0.00  0.00    +0.312 C 
ATOM      6  O   UNL     1       0.603   3.885  -0.625  0.00  0.00    -0.252 OA
ATOM      7  N   UNL     1       0.247   1.813  -1.619  0.00  0.00    -0.239 N 
ATOM      8  C   UNL     1       0.033   0.406  -1.484  0.00  0.00    +0.236 C 
ATOM      9  O   UNL     1      -0.130  -0.283  -2.529  0.00  0.00    -0.274 OA
ATOM     10  H   UNL     1       0.783   2.668   1.632  0.00  0.00    +0.159 HD
ATOM     11  H   UNL     1       0.239   2.244  -2.571  0.00  0.00    +0.159 HD
ENDROOT
BRANCH   1  13
ATOM     12  C   UNL     1      -1.855  -1.498   1.370  0.00  0.00    +0.009 C 
ATOM     13  C   UNL     1      -1.590  -0.646   0.113  0.00  0.00    +0.007 C 
ATOM     14  C   UNL     1      -2.511   0.591   0.143  0.00  0.00    +0.009 C 
ENDBRANCH   1  13
BRANCH   1  15
ATOM     15  C   UNL     1       0.811  -1.561  -0.143  0.00  0.00    +0.052 C 
BRANCH  15  16
ATOM     16  C   UNL     1       2.225  -1.321  -0.615  0.00  0.00    -0.033 C 
ATOM     17  C   UNL     1       3.115  -0.692   0.154  0.00  0.00    +0.004 C 
ENDBRANCH  15  16
ENDBRANCH   1  15
TORSDOF 3
