REMARK  Name = 
REMARK  20 active torsions:
REMARK  status: ('A' for Active; 'I' for Inactive)
REMARK    1  A    between atoms: N_1  and  C_2
REMARK    2  A    between atoms: C_2  and  C_3
REMARK    3  A    between atoms: C_3  and  C_4
REMARK    4  A    between atoms: C_4  and  O_5
REMARK    5  A    between atoms: C_4  and  C_6
REMARK    6  A    between atoms: N_8  and  C_9
REMARK    7  A    between atoms: C_11  and  N_12
REMARK    8  A    between atoms: C_13  and  O_14
REMARK    9  A    between atoms: O_14  and  C_15
REMARK   10  A    between atoms: C_17  and  C_18
REMARK   11  A    between atoms: C_18  and  N_19
REMARK   12  A    between atoms: C_22  and  N_23
REMARK   13  A    between atoms: C_24  and  O_25
REMARK   14  A    between atoms: C_26  and  O_27
REMARK   15  A    between atoms: O_27  and  C_28
REMARK   16  A    between atoms: C_30  and  C_31
REMARK   17  A    between atoms: C_31  and  O_32
REMARK   18  A    between atoms: C_33  and  O_34
REMARK   19  A    between atoms: C_35  and  N_36
REMARK   20  A    between atoms: C_37  and  O_38
REMARK                            x       y       z     vdW  Elec       q    Type
REMARK                         _______ _______ _______ _____ _____    ______ ____
ROOT
ATOM      1  C   UNL     1      -0.468   1.703   0.112  0.00  0.00    +0.106 C 
ATOM      2  C   UNL     1       0.803   2.282  -0.523  0.00  0.00    +0.046 C 
ATOM      3  C   UNL     1       2.071   1.665   0.102  0.00  0.00    +0.084 C 
ATOM      4  C   UNL     1       2.045   0.124  -0.040  0.00  0.00    +0.169 C 
ATOM      5  C   UNL     1       0.764  -0.443   0.610  0.00  0.00    +0.175 C 
ATOM      6  C   UNL     1      -0.502   0.170  -0.016  0.00  0.00    +0.173 C 
ENDROOT
BRANCH   1   9
ATOM      7  C   UNL     1      -2.640   3.039   0.159  0.00  0.00    +0.242 C 
ATOM      8  O   UNL     1      -2.438   3.400   1.352  0.00  0.00    -0.273 OA
ATOM      9  N   UNL     1      -1.650   2.271  -0.541  0.00  0.00    -0.308 N 
ATOM     10  H   UNL     1      -1.795   2.071  -1.558  0.00  0.00    +0.149 HD
BRANCH   7  11
ATOM     11  C   UNL     1      -3.894   3.477  -0.554  0.00  0.00    +0.201 C 
BRANCH  11  12
ATOM     12  O   UNL     1      -4.938   3.688   0.365  0.00  0.00    -0.383 OA
ATOM     13  H   UNL     1      -4.719   4.501   0.893  0.00  0.00    +0.210 HD
ENDBRANCH  11  12
BRANCH  11  14
ATOM     14  C   UNL     1      -3.615   4.731  -1.407  0.00  0.00    +0.056 C 
BRANCH  14  15
ATOM     15  C   UNL     1      -4.838   5.174  -2.223  0.00  0.00    +0.080 C 
BRANCH  15  16
ATOM     16  N   UNL     1      -5.835   5.816  -1.369  0.00  0.00    -0.330 NA
ATOM     17  H   UNL     1      -6.657   6.059  -1.964  0.00  0.00    +0.118 HD
ATOM     18  H   UNL     1      -5.442   6.724  -1.029  0.00  0.00    +0.118 HD
ENDBRANCH  15  16
ENDBRANCH  14  15
ENDBRANCH  11  14
ENDBRANCH   7  11
ENDBRANCH   1   9
BRANCH   3  19
ATOM     19  N   UNL     1       3.253   2.215  -0.561  0.00  0.00    -0.325 NA
ATOM     20  H   UNL     1       4.103   1.832  -0.092  0.00  0.00    +0.119 HD
ATOM     21  H   UNL     1       3.285   3.244  -0.377  0.00  0.00    +0.119 HD
ENDBRANCH   3  19
BRANCH   5  22
ATOM     22  O   UNL     1       0.739  -1.837   0.434  0.00  0.00    -0.387 OA
ATOM     23  H   UNL     1       0.418  -2.233   1.283  0.00  0.00    +0.210 HD
ENDBRANCH   5  22
BRANCH   4  24
ATOM     24  O   UNL     1       3.169  -0.423   0.634  0.00  0.00    -0.342 OA
BRANCH  24  25
ATOM     25  C   UNL     1       3.813  -1.435  -0.129  0.00  0.00    +0.268 C 
ATOM     26  O   UNL     1       4.761  -0.838  -1.009  0.00  0.00    -0.345 OA
ATOM     27  C   UNL     1       5.969  -0.531  -0.334  0.00  0.00    +0.135 C 
ATOM     28  C   UNL     1       6.733  -1.839  -0.012  0.00  0.00    +0.034 C 
ATOM     29  C   UNL     1       5.765  -3.014   0.210  0.00  0.00    +0.026 C 
ATOM     30  C   UNL     1       4.433  -2.530   0.802  0.00  0.00    +0.107 C 
BRANCH  30  31
ATOM     31  N   UNL     1       4.639  -2.031   2.166  0.00  0.00    -0.323 NA
ATOM     32  H   UNL     1       5.043  -2.811   2.742  0.00  0.00    +0.119 HD
ATOM     33  H   UNL     1       3.703  -1.829   2.590  0.00  0.00    +0.119 HD
ENDBRANCH  30  31
BRANCH  27  34
ATOM     34  C   UNL     1       6.802   0.420  -1.217  0.00  0.00    +0.109 C 
BRANCH  34  35
ATOM     35  N   UNL     1       7.992   0.924  -0.527  0.00  0.00    -0.328 NA
ATOM     36  H   UNL     1       8.634   0.128  -0.318  0.00  0.00    +0.118 HD
ATOM     37  H   UNL     1       7.703   1.355   0.380  0.00  0.00    +0.118 HD
ENDBRANCH  34  35
ENDBRANCH  27  34
ENDBRANCH  24  25
ENDBRANCH   4  24
BRANCH   6  38
ATOM     38  O   UNL     1      -1.645  -0.304   0.684  0.00  0.00    -0.341 OA
BRANCH  38  39
ATOM     39  C   UNL     1      -2.541  -1.040  -0.140  0.00  0.00    +0.281 C 
ATOM     40  O   UNL     1      -2.175  -2.418  -0.146  0.00  0.00    -0.341 OA
ATOM     41  C   UNL     1      -2.584  -3.061   1.051  0.00  0.00    +0.177 C 
ATOM     42  C   UNL     1      -4.130  -3.214   1.091  0.00  0.00    +0.165 C 
ATOM     43  C   UNL     1      -4.822  -2.112   0.242  0.00  0.00    +0.116 C 
ATOM     44  C   UNL     1      -4.012  -0.800   0.315  0.00  0.00    +0.189 C 
BRANCH  43  45
ATOM     45  N   UNL     1      -4.945  -2.543  -1.154  0.00  0.00    -0.323 NA
ATOM     46  H   UNL     1      -5.508  -1.829  -1.667  0.00  0.00    +0.119 HD
ATOM     47  H   UNL     1      -5.509  -3.423  -1.185  0.00  0.00    +0.119 HD
ENDBRANCH  43  45
BRANCH  42  48
ATOM     48  O   UNL     1      -4.560  -3.123   2.427  0.00  0.00    -0.388 OA
ATOM     49  H   UNL     1      -5.471  -3.517   2.468  0.00  0.00    +0.210 HD
ENDBRANCH  42  48
BRANCH  44  50
ATOM     50  O   UNL     1      -4.040  -0.295   1.629  0.00  0.00    -0.385 OA
ATOM     51  H   UNL     1      -4.947   0.089   1.770  0.00  0.00    +0.210 HD
ENDBRANCH  44  50
BRANCH  41  52
ATOM     52  C   UNL     1      -1.884  -4.423   1.159  0.00  0.00    +0.190 C 
BRANCH  52  53
ATOM     53  O   UNL     1      -2.164  -5.208   0.031  0.00  0.00    -0.392 OA
ATOM     54  H   UNL     1      -1.691  -6.069   0.173  0.00  0.00    +0.210 HD
ENDBRANCH  52  53
ENDBRANCH  41  52
ENDBRANCH  38  39
ENDBRANCH   6  38
TORSDOF 20
