REMARK  Name = 
REMARK  12 active torsions:
REMARK  status: ('A' for Active; 'I' for Inactive)
REMARK    1  A    between atoms: O_1  and  C_2
REMARK    2  A    between atoms: C_2  and  C_3
REMARK    3  A    between atoms: C_2  and  C_16
REMARK    4  A    between atoms: C_3  and  N_4
REMARK    5  A    between atoms: N_4  and  C_5
REMARK    6  A    between atoms: C_5  and  C_6
REMARK    7  A    between atoms: C_6  and  C_7
REMARK    8  A    between atoms: C_7  and  C_8
REMARK    9  A    between atoms: C_8  and  C_9
REMARK   10  A    between atoms: C_12  and  O_13
REMARK   11  A    between atoms: C_18  and  O_19
REMARK   12  A    between atoms: C_20  and  O_21
REMARK                            x       y       z     vdW  Elec       q    Type
REMARK                         _______ _______ _______ _____ _____    ______ ____
ROOT
ATOM      1  C   UNL     1      -1.149   0.754  -1.084  0.00  0.00    +0.117 C 
ENDROOT
BRANCH   1   2
ATOM      2  N   UNL     1       0.296   0.518  -1.223  0.00  0.00    -0.313 NA
ATOM      3  H   UNL     1       0.771   1.444  -1.345  0.00  0.00    +0.122 HD
BRANCH   2   4
ATOM      4  C   UNL     1       0.607  -0.299  -2.402  0.00  0.00    +0.081 C 
BRANCH   4   5
ATOM      5  C   UNL     1       2.067  -0.777  -2.359  0.00  0.00    +0.015 C 
BRANCH   5   6
ATOM      6  C   UNL     1       2.281  -2.019  -1.472  0.00  0.00    +0.006 C 
BRANCH   6   7
ATOM      7  C   UNL     1       2.174  -1.754   0.040  0.00  0.00    +0.035 C 
BRANCH   7   8
ATOM      8  C   UNL     1       3.216  -0.780   0.534  0.00  0.00    -0.047 A 
ATOM      9  C   UNL     1       2.840   0.490   1.002  0.00  0.00    +0.007 A 
ATOM     10  C   UNL     1       3.810   1.393   1.449  0.00  0.00    +0.045 A 
ATOM     11  C   UNL     1       5.162   1.035   1.440  0.00  0.00    +0.117 A 
ATOM     12  C   UNL     1       5.542  -0.234   0.983  0.00  0.00    +0.045 A 
ATOM     13  C   UNL     1       4.574  -1.138   0.535  0.00  0.00    +0.007 A 
BRANCH  11  14
ATOM     14  O   UNL     1       6.117   1.945   1.887  0.00  0.00    -0.507 OA
ATOM     15  H   UNL     1       7.104   1.716   1.893  0.00  0.00    +0.292 HD
ENDBRANCH  11  14
ENDBRANCH   7   8
ENDBRANCH   6   7
ENDBRANCH   5   6
ENDBRANCH   4   5
ENDBRANCH   2   4
ENDBRANCH   1   2
BRANCH   1  16
ATOM     16  C   UNL     1      -1.737  -0.183  -0.020  0.00  0.00    +0.158 C 
BRANCH  16  17
ATOM     17  C   UNL     1      -3.188   0.164   0.237  0.00  0.00    -0.014 A 
ATOM     18  C   UNL     1      -3.547   0.901   1.379  0.00  0.00    +0.055 A 
ATOM     19  C   UNL     1      -4.882   1.250   1.611  0.00  0.00    +0.159 A 
ATOM     20  C   UNL     1      -5.874   0.870   0.692  0.00  0.00    +0.158 A 
ATOM     21  C   UNL     1      -5.519   0.145  -0.454  0.00  0.00    +0.049 A 
ATOM     22  C   UNL     1      -4.185  -0.201  -0.683  0.00  0.00    +0.010 A 
BRANCH  19  23
ATOM     23  O   UNL     1      -5.202   1.976   2.757  0.00  0.00    -0.503 OA
ATOM     24  H   UNL     1      -6.153   2.253   2.970  0.00  0.00    +0.292 HD
ENDBRANCH  19  23
BRANCH  20  25
ATOM     25  O   UNL     1      -7.206   1.213   0.918  0.00  0.00    -0.503 OA
ATOM     26  H   UNL     1      -7.939   0.951   0.270  0.00  0.00    +0.292 HD
ENDBRANCH  20  25
ENDBRANCH  16  17
BRANCH  16  27
ATOM     27  O   UNL     1      -1.627  -1.517  -0.443  0.00  0.00    -0.386 OA
ATOM     28  H   UNL     1      -1.774  -2.085   0.358  0.00  0.00    +0.210 HD
ENDBRANCH  16  27
ENDBRANCH   1  16
TORSDOF 12
