REMARK  Name = 
REMARK  12 active torsions:
REMARK  status: ('A' for Active; 'I' for Inactive)
REMARK    1  A    between atoms: C_1  and  O_2
REMARK    2  A    between atoms: O_2  and  C_3
REMARK    3  A    between atoms: C_6  and  C_7
REMARK    4  A    between atoms: C_7  and  C_8
REMARK    5  A    between atoms: C_8  and  C_9
REMARK    6  A    between atoms: C_8  and  N_10
REMARK    7  A    between atoms: N_10  and  C_11
REMARK    8  A    between atoms: C_11  and  C_12
REMARK    9  A    between atoms: C_12  and  O_13
REMARK   10  A    between atoms: C_12  and  C_14
REMARK   11  A    between atoms: C_16  and  N_17
REMARK   12  A    between atoms: C_20  and  O_21
REMARK                            x       y       z     vdW  Elec       q    Type
REMARK                         _______ _______ _______ _____ _____    ______ ____
ROOT
ATOM      1  C   UNL     1      -1.907  -0.586  -0.926  0.00  0.00    +0.158 C 
ENDROOT
BRANCH   1   2
ATOM      2  C   UNL     1      -3.345  -0.690  -0.453  0.00  0.00    -0.016 A 
ATOM      3  C   UNL     1      -3.631  -0.759   0.922  0.00  0.00    +0.033 A 
ATOM      4  C   UNL     1      -4.960  -0.832   1.380  0.00  0.00    +0.075 A 
ATOM      5  C   UNL     1      -6.009  -0.863   0.446  0.00  0.00    +0.138 A 
ATOM      6  C   UNL     1      -5.728  -0.787  -0.924  0.00  0.00    +0.047 A 
ATOM      7  C   UNL     1      -4.409  -0.692  -1.371  0.00  0.00    +0.010 A 
BRANCH   4   8
ATOM      8  N   UNL     1      -5.252  -0.928   2.786  0.00  0.00    -0.285 N 
ATOM      9  C   UNL     1      -4.532  -0.227   3.807  0.00  0.00    +0.330 C 
ATOM     10  O   UNL     1      -3.690   0.664   3.517  0.00  0.00    -0.279 OA
ATOM     11  H   UNL     1      -6.088  -1.477   3.088  0.00  0.00    +0.155 HD
ENDBRANCH   4   8
BRANCH   5  12
ATOM     12  O   UNL     1      -7.330  -0.957   0.883  0.00  0.00    -0.505 OA
ATOM     13  H   UNL     1      -8.105  -0.978   0.231  0.00  0.00    +0.292 HD
ENDBRANCH   5  12
ENDBRANCH   1   2
BRANCH   1  14
ATOM     14  O   UNL     1      -1.614  -1.603  -1.852  0.00  0.00    -0.386 OA
ATOM     15  H   UNL     1      -2.046  -1.371  -2.715  0.00  0.00    +0.210 HD
ENDBRANCH   1  14
BRANCH   1  16
ATOM     16  C   UNL     1      -1.614   0.825  -1.497  0.00  0.00    +0.117 C 
BRANCH  16  17
ATOM     17  N   UNL     1      -0.259   0.970  -2.066  0.00  0.00    -0.310 NA
ATOM     18  H   UNL     1      -0.174   0.303  -2.869  0.00  0.00    +0.122 HD
BRANCH  17  19
ATOM     19  C   UNL     1       0.860   0.738  -1.126  0.00  0.00    +0.055 C 
ATOM     20  C   UNL     1       0.797   1.704   0.073  0.00  0.00    +0.024 C 
BRANCH  19  21
ATOM     21  C   UNL     1       2.192   0.918  -1.890  0.00  0.00    +0.053 C 
BRANCH  21  25
ATOM     22  C   UNL     1       5.597  -0.393   0.437  0.00  0.00    +0.120 A 
ATOM     23  C   UNL     1       5.343   0.981   0.262  0.00  0.00    +0.046 A 
ATOM     24  C   UNL     1       4.246   1.405  -0.494  0.00  0.00    +0.007 A 
ATOM     25  C   UNL     1       3.387   0.465  -1.087  0.00  0.00    -0.046 A 
ATOM     26  C   UNL     1       3.641  -0.903  -0.910  0.00  0.00    +0.007 A 
ATOM     27  C   UNL     1       4.738  -1.326  -0.154  0.00  0.00    +0.046 A 
BRANCH  22  29
ATOM     28  C   UNL     1       7.633  -0.034   1.843  0.00  0.00    +0.277 C 
ATOM     29  O   UNL     1       6.683  -0.868   1.187  0.00  0.00    -0.495 OA
ENDBRANCH  22  29
ENDBRANCH  21  25
ENDBRANCH  19  21
ENDBRANCH  17  19
ENDBRANCH  16  17
ENDBRANCH   1  16
TORSDOF 10
