REMARK  Name = 
REMARK  12 active torsions:
REMARK  status: ('A' for Active; 'I' for Inactive)
REMARK    1  A    between atoms: C_1  and  C_2
REMARK    2  A    between atoms: C_6  and  C_8
REMARK    3  A    between atoms: C_8  and  O_9
REMARK    4  A    between atoms: C_11  and  C_13
REMARK    5  A    between atoms: C_13  and  C_14
REMARK    6  A    between atoms: C_13  and  N_21
REMARK    7  A    between atoms: C_14  and  C_15
REMARK    8  A    between atoms: C_15  and  C_16
REMARK    9  A    between atoms: C_16  and  N_17
REMARK   10  A    between atoms: N_21  and  S_22
REMARK   11  A    between atoms: S_22  and  C_25
REMARK   12  A    between atoms: C_33  and  C_34
REMARK                            x       y       z     vdW  Elec       q    Type
REMARK                         _______ _______ _______ _____ _____    ______ ____
ROOT
ATOM      1  C   UNL     1      -0.480   0.389   0.084  0.00  0.00    +0.162 C 
ENDROOT
BRANCH   1   9
ATOM      2  C   UNL     1      -6.270  -2.534  -0.055  0.00  0.00    +0.007 C 
ATOM      3  C   UNL     1      -4.859  -2.446   0.536  0.00  0.00    -0.010 C 
ATOM      4  C   UNL     1      -4.659  -1.102   1.255  0.00  0.00    +0.022 C 
ATOM      5  C   UNL     1      -3.258  -1.015   1.862  0.00  0.00    +0.109 C 
ATOM      6  N   UNL     1      -2.234  -1.304   0.851  0.00  0.00    -0.287 N 
ATOM      7  C   UNL     1      -2.364  -2.479  -0.029  0.00  0.00    +0.185 C 
ATOM      8  C   UNL     1      -3.800  -2.614  -0.568  0.00  0.00    +0.037 C 
ATOM      9  C   UNL     1      -0.943  -0.702   1.014  0.00  0.00    +0.235 C 
ATOM     10  O   UNL     1      -0.204  -1.067   1.967  0.00  0.00    -0.274 OA
BRANCH   7  11
ATOM     11  C   UNL     1      -1.908  -3.736   0.667  0.00  0.00    +0.325 C 
ATOM     12  O   UNL     1      -2.253  -3.980   1.853  0.00  0.00    -0.249 OA
BRANCH  11  13
ATOM     13  O   UNL     1      -1.126  -4.656  -0.026  0.00  0.00    -0.479 OA
ATOM     14  H   UNL     1      -0.816  -5.512   0.417  0.00  0.00    +0.295 HD
ENDBRANCH  11  13
ENDBRANCH   7  11
ENDBRANCH   1   9
BRANCH   1  15
ATOM     15  N   UNL     1      -0.391  -0.159  -1.286  0.00  0.00    -0.178 NA
ATOM     16  H   UNL     1      -1.068   0.301  -1.936  0.00  0.00    +0.149 HD
BRANCH  15  17
ATOM     17  S   UNL     1       1.208   0.021  -1.957  0.00  0.00    +0.061 S 
ATOM     18  O   UNL     1       1.170  -0.325  -3.419  0.00  0.00    -0.153 OA
ATOM     19  O   UNL     1       1.643   1.452  -1.797  0.00  0.00    -0.153 OA
BRANCH  17  20
ATOM     20  C   UNL     1       2.344  -1.064  -1.137  0.00  0.00    +0.126 A 
ATOM     21  C   UNL     1       1.831  -2.185  -0.468  0.00  0.00    +0.030 A 
ATOM     22  C   UNL     1       2.669  -3.023   0.264  0.00  0.00    +0.002 A 
ATOM     23  C   UNL     1       4.034  -2.753   0.342  0.00  0.00    +0.005 A 
ATOM     24  C   UNL     1       4.575  -1.651  -0.332  0.00  0.00    -0.024 A 
ATOM     25  C   UNL     1       3.741  -0.825  -1.120  0.00  0.00    +0.057 A 
ATOM     26  N   UNL     1       4.333   0.237  -1.895  0.00  0.00    -0.342 N 
ATOM     27  C   UNL     1       5.768   0.519  -1.866  0.00  0.00    +0.105 C 
ATOM     28  C   UNL     1       6.387   0.076  -0.532  0.00  0.00    +0.007 C 
ATOM     29  C   UNL     1       7.901   0.309  -0.529  0.00  0.00    +0.009 C 
ATOM     30  C   UNL     1       6.061  -1.404  -0.275  0.00  0.00    +0.041 C 
ATOM     31  H   UNL     1       3.799   0.665  -2.682  0.00  0.00    +0.146 HD
ENDBRANCH  17  20
ENDBRANCH  15  17
ENDBRANCH   1  15
BRANCH   1  32
ATOM     32  C   UNL     1      -1.450   1.590   0.179  0.00  0.00    +0.031 C 
BRANCH  32  33
ATOM     33  C   UNL     1      -0.916   2.833  -0.551  0.00  0.00    +0.025 C 
BRANCH  33  34
ATOM     34  C   UNL     1      -1.827   4.046  -0.355  0.00  0.00    +0.145 C 
BRANCH  34  35
ATOM     35  N   UNL     1      -1.774   4.495   1.034  0.00  0.00    -0.253 NA
ATOM     36  C   UNL     1      -2.389   5.537   1.514  0.00  0.00    +0.188 C 
ATOM     37  N   UNL     1      -3.207   6.375   0.687  0.00  0.00    -0.370 N 
ATOM     38  N   UNL     1      -2.237   5.855   2.897  0.00  0.00    -0.370 N 
ATOM     39  H   UNL     1      -3.361   6.182  -0.327  0.00  0.00    +0.159 HD
ATOM     40  H   UNL     1      -3.671   7.216   1.096  0.00  0.00    +0.159 HD
ATOM     41  H   UNL     1      -2.722   6.682   3.307  0.00  0.00    +0.159 HD
ATOM     42  H   UNL     1      -1.646   5.257   3.517  0.00  0.00    +0.159 HD
ENDBRANCH  34  35
ENDBRANCH  33  34
ENDBRANCH  32  33
ENDBRANCH   1  32
TORSDOF 10
