REMARK  Name = 
REMARK  7 active torsions:
REMARK  status: ('A' for Active; 'I' for Inactive)
REMARK    1  A    between atoms: C_6  and  N_7
REMARK    2  A    between atoms: N_10  and  C_11
REMARK    3  A    between atoms: C_11  and  C_12
REMARK    4  A    between atoms: C_12  and  C_13
REMARK    5  A    between atoms: C_13  and  C_14
REMARK    6  A    between atoms: C_14  and  O_15
REMARK    7  A    between atoms: O_15  and  C_16
REMARK                            x       y       z     vdW  Elec       q    Type
REMARK                         _______ _______ _______ _____ _____    ______ ____
ROOT
ATOM      1  C   UNL     1      -0.321  -0.835   0.186  0.00  0.00    +0.019 C 
ENDROOT
BRANCH   1   2
ATOM      2  C   UNL     1       0.933  -0.349  -0.559  0.00  0.00    +0.084 C 
BRANCH   2   6
ATOM      3  N   UNL     1       4.561  -0.266  -0.606  0.00  0.00    -0.326 N 
ATOM      4  C   UNL     1       3.751   0.778  -1.231  0.00  0.00    +0.120 C 
ATOM      5  C   UNL     1       2.735   1.299  -0.210  0.00  0.00    +0.103 C 
ATOM      6  N   UNL     1       1.935   0.204   0.381  0.00  0.00    -0.299 NA
ATOM      7  C   UNL     1       2.793  -0.830   1.005  0.00  0.00    +0.103 C 
ATOM      8  C   UNL     1       3.867  -1.375   0.049  0.00  0.00    +0.120 C 
BRANCH   3  14
ATOM      9 CL   UNL     1       9.228  -0.016  -2.980  0.00  0.00    -0.082 Cl
ATOM     10  C   UNL     1       8.186  -0.002  -1.562  0.00  0.00    +0.061 A 
ATOM     11  C   UNL     1       8.770   0.153  -0.301  0.00  0.00    +0.021 A 
ATOM     12  C   UNL     1       7.976   0.159   0.847  0.00  0.00    +0.003 A 
ATOM     13  C   UNL     1       6.592   0.015   0.740  0.00  0.00    +0.025 A 
ATOM     14  C   UNL     1       5.989  -0.135  -0.518  0.00  0.00    +0.050 A 
ATOM     15  C   UNL     1       6.791  -0.149  -1.678  0.00  0.00    +0.080 A 
ATOM     16 CL   UNL     1       6.057  -0.399  -3.263  0.00  0.00    -0.080 Cl
ENDBRANCH   3  14
ENDBRANCH   2   6
ENDBRANCH   1   2
BRANCH   1  17
ATOM     17  C   UNL     1      -0.946   0.224   1.112  0.00  0.00    +0.042 C 
BRANCH  17  18
ATOM     18  C   UNL     1      -1.441   1.476   0.370  0.00  0.00    +0.229 C 
BRANCH  18  19
ATOM     19  O   UNL     1      -2.319   1.137  -0.704  0.00  0.00    -0.492 OA
BRANCH  19  20
ATOM     20  C   UNL     1      -3.643   0.690  -0.570  0.00  0.00    +0.122 A 
ATOM     21  C   UNL     1      -4.321   0.670   0.665  0.00  0.00    +0.069 A 
ATOM     22  C   UNL     1      -5.644   0.215   0.741  0.00  0.00    +0.040 A 
ATOM     23  C   UNL     1      -6.307  -0.218  -0.425  0.00  0.00    -0.025 A 
ATOM     24  C   UNL     1      -7.696  -0.803  -0.330  0.00  0.00    +0.046 C 
ATOM     25  C   UNL     1      -8.526  -0.137   0.777  0.00  0.00    +0.101 C 
ATOM     26  C   UNL     1      -7.740  -0.048   2.052  0.00  0.00    +0.218 C 
ATOM     27  O   UNL     1      -8.327  -0.122   3.164  0.00  0.00    -0.275 OA
ATOM     28  N   UNL     1      -6.331   0.197   2.000  0.00  0.00    -0.285 N 
ATOM     29  C   UNL     1      -5.627  -0.207  -1.650  0.00  0.00    +0.009 A 
ATOM     30  C   UNL     1      -4.310   0.254  -1.720  0.00  0.00    +0.046 A 
ATOM     31  H   UNL     1      -5.810   0.386   2.887  0.00  0.00    +0.155 HD
ENDBRANCH  19  20
ENDBRANCH  18  19
ENDBRANCH  17  18
ENDBRANCH   1  17
TORSDOF 7
