REMARK  Name = 
REMARK  0 active torsions:
REMARK  status: ('A' for Active; 'I' for Inactive)
REMARK                            x       y       z     vdW  Elec       q    Type
REMARK                         _______ _______ _______ _____ _____    ______ ____
ROOT
ATOM      1  O   UNL     1       0.334   1.006  -0.173  0.00  0.00    +0.000 OA
ATOM      2 AS   UNL     1       1.006  -0.334   0.173  0.00  0.00    +0.000 As
ATOM      3  O   UNL     1      -0.333  -1.005  -0.173  0.00  0.00    +0.000 OA
ATOM      4 AS   UNL     1      -1.007   0.333   0.173  0.00  0.00    +0.000 As
ATOM      5  O   UNL     1       1.525  -0.506   1.940  0.00  0.00    +0.000 OA
ENDROOT
TORSDOF 0
