REMARK  Name = 
REMARK  5 active torsions:
REMARK  status: ('A' for Active; 'I' for Inactive)
REMARK    1  A    between atoms: C_4  and  C_5
REMARK    2  A    between atoms: C_9  and  C_10
REMARK    3  A    between atoms: C_16  and  O_17
REMARK    4  A    between atoms: O_17  and  C_18
REMARK    5  A    between atoms: C_19  and  C_20
REMARK                            x       y       z     vdW  Elec       q    Type
REMARK                         _______ _______ _______ _____ _____    ______ ____
ROOT
ATOM      1  C   UNL     1       0.531  -0.571   1.510  0.00  0.00    +0.037 C 
ATOM      2  C   UNL     1       0.836  -1.984   0.953  0.00  0.00    +0.007 C 
ATOM      3  C   UNL     1      -0.444  -2.763   0.684  0.00  0.00    +0.004 C 
ATOM      4  C   UNL     1      -1.312  -2.031  -0.347  0.00  0.00    -0.008 C 
ATOM      5  C   UNL     1      -2.554  -2.889  -0.651  0.00  0.00    +0.008 C 
ATOM      6  C   UNL     1      -1.686  -0.614   0.178  0.00  0.00    +0.032 C 
ATOM      7  C   UNL     1      -2.627   0.120  -0.823  0.00  0.00    +0.012 C 
ATOM      8  C   UNL     1      -2.763   1.640  -0.603  0.00  0.00    +0.068 C 
ATOM      9  C   UNL     1      -1.385   2.364  -0.603  0.00  0.00    +0.203 C 
ATOM     10  C   UNL     1      -1.536   3.776  -1.174  0.00  0.00    +0.077 C 
ATOM     11  O   UNL     1      -0.866   2.489   0.720  0.00  0.00    -0.199 OA
ATOM     12  O   UNL     1      -0.961   1.321   1.367  0.00  0.00    -0.220 OA
ATOM     13  C   UNL     1      -0.431   0.242   0.595  0.00  0.00    +0.161 C 
ATOM     14  C   UNL     1       0.359   0.799  -0.648  0.00  0.00    +0.292 C 
ATOM     15  O   UNL     1       1.484   1.572  -0.250  0.00  0.00    -0.319 OA
ATOM     16  C   UNL     1       2.435   0.826   0.489  0.00  0.00    +0.256 C 
ATOM     17  C   UNL     1       1.810   0.264   1.787  0.00  0.00    +0.048 C 
ATOM     18  C   UNL     1       2.851  -0.470   2.648  0.00  0.00    +0.013 C 
ATOM     19  O   UNL     1      -0.471   1.647  -1.426  0.00  0.00    -0.314 OA
ENDROOT
BRANCH  16  20
ATOM     20  O   UNL     1       3.014  -0.201  -0.299  0.00  0.00    -0.354 OA
ATOM     21  C   UNL     1       3.874   0.353  -1.270  0.00  0.00    +0.197 C 
ENDBRANCH  16  20
TORSDOF 1
