REMARK  Name = 
REMARK  5 active torsions:
REMARK  status: ('A' for Active; 'I' for Inactive)
REMARK    1  A    between atoms: O_1  and  C_2
REMARK    2  A    between atoms: C_2  and  C_4
REMARK    3  A    between atoms: C_5  and  C_6
REMARK    4  A    between atoms: C_6  and  O_7
REMARK    5  A    between atoms: C_9  and  N_10
REMARK                            x       y       z     vdW  Elec       q    Type
REMARK                         _______ _______ _______ _____ _____    ______ ____
ROOT
ATOM      1  C   UNL     1      -0.535  -0.242  -1.072  0.00  0.00    +0.098 C 
ATOM      2  C   UNL     1       0.795  -0.057  -1.053  0.00  0.00    +0.098 C 
ENDROOT
BRANCH   1   3
ATOM      3  C   UNL     1      -1.399  -0.371   0.117  0.00  0.00    +0.330 C 
ATOM      4  O   UNL     1      -2.646  -0.263  -0.015  0.00  0.00    -0.246 OA
BRANCH   3   5
ATOM      5  O   UNL     1      -0.870  -0.674   1.368  0.00  0.00    -0.478 OA
ATOM      6  H   UNL     1      -1.465  -0.717   2.187  0.00  0.00    +0.295 HD
ENDBRANCH   3   5
ENDBRANCH   1   3
BRANCH   2   7
ATOM      7  C   UNL     1       1.595   0.229   0.151  0.00  0.00    +0.330 C 
ATOM      8  O   UNL     1       2.723  -0.312   0.283  0.00  0.00    -0.246 OA
BRANCH   7   9
ATOM      9  O   UNL     1       1.164   1.148   1.105  0.00  0.00    -0.478 OA
ATOM     10  H   UNL     1       0.326   1.700   0.964  0.00  0.00    +0.295 HD
ENDBRANCH   7   9
ENDBRANCH   2   7
TORSDOF 4
REMARK  Name = 
REMARK  5 active torsions:
REMARK  status: ('A' for Active; 'I' for Inactive)
REMARK    1  A    between atoms: O_1  and  C_2
REMARK    2  A    between atoms: C_2  and  C_4
REMARK    3  A    between atoms: C_5  and  C_6
REMARK    4  A    between atoms: C_6  and  O_7
REMARK    5  A    between atoms: C_9  and  N_10
REMARK                            x       y       z     vdW  Elec       q    Type
REMARK                         _______ _______ _______ _____ _____    ______ ____
ROOT
ATOM      1  C   UNL     1       3.978  -0.167   1.220  0.00  0.00    +0.104 C 
ATOM      2  N   UNL     1       2.544  -0.303   1.516  0.00  0.00    -0.304 NA
ATOM      3  C   UNL     1       1.835   0.969   1.370  0.00  0.00    +0.093 C 
ATOM      4  C   UNL     1       0.409   0.594   0.983  0.00  0.00    +0.045 C 
ATOM      5  C   UNL     1       0.629  -0.555   0.018  0.00  0.00    +0.045 C 
ATOM      6  C   UNL     1       1.875  -1.251   0.608  0.00  0.00    +0.093 C 
ATOM      7  C   UNL     1      -0.559  -1.495  -0.160  0.00  0.00    +0.001 A 
ATOM      8  C   UNL     1      -1.914  -1.140   0.116  0.00  0.00    +0.132 A 
ATOM      9  O   UNL     1      -2.367   0.141   0.469  0.00  0.00    -0.455 OA
ATOM     10  C   UNL     1      -1.802   1.374   0.125  0.00  0.00    +0.132 A 
ATOM     11  C   UNL     1      -2.653   2.351  -0.408  0.00  0.00    +0.046 A 
ATOM     12  C   UNL     1      -2.168   3.620  -0.721  0.00  0.00    +0.004 A 
ATOM     13  C   UNL     1      -0.832   3.932  -0.476  0.00  0.00    +0.001 A 
ATOM     14  C   UNL     1       0.022   2.976   0.077  0.00  0.00    +0.007 A 
ATOM     15  C   UNL     1      -0.450   1.674   0.368  0.00  0.00    -0.000 A 
ATOM     16  C   UNL     1      -2.911  -2.122   0.017  0.00  0.00    +0.048 A 
ATOM     17  C   UNL     1      -2.619  -3.405  -0.439  0.00  0.00    +0.023 A 
ATOM     18  C   UNL     1      -1.318  -3.730  -0.810  0.00  0.00    +0.041 A 
ATOM     19 CL   UNL     1      -0.956  -5.330  -1.430  0.00  0.00    -0.084 Cl
ATOM     20  C   UNL     1      -0.302  -2.783  -0.683  0.00  0.00    +0.027 A 
ENDROOT
TORSDOF 0
