REMARK  Name = 
REMARK  11 active torsions:
REMARK  status: ('A' for Active; 'I' for Inactive)
REMARK    1  A    between atoms: C_1  and  O_2
REMARK    2  A    between atoms: O_2  and  C_3
REMARK    3  A    between atoms: C_3  and  C_5
REMARK    4  A    between atoms: C_5  and  C_6
REMARK    5  A    between atoms: C_5  and  N_13
REMARK    6  A    between atoms: C_6  and  C_7
REMARK    7  A    between atoms: C_14  and  C_16
REMARK    8  A    between atoms: C_16  and  N_17
REMARK    9  A    between atoms: C_16  and  C_18
REMARK   10  A    between atoms: C_18  and  C_19
REMARK   11  A    between atoms: C_19  and  O_20
REMARK                            x       y       z     vdW  Elec       q    Type
REMARK                         _______ _______ _______ _____ _____    ______ ____
ROOT
ATOM      1  N   UNL     1      -0.514  -0.301  -1.295  0.00  0.00    -0.301 N 
ATOM      2  C   UNL     1      -1.858  -0.784  -1.152  0.00  0.00    +0.231 C 
ATOM      3  O   UNL     1      -2.154  -1.557  -0.199  0.00  0.00    -0.274 OA
ATOM      4  H   UNL     1      -0.283   0.287  -2.128  0.00  0.00    +0.150 HD
ENDROOT
BRANCH   1   5
ATOM      5  C   UNL     1       0.514  -0.553  -0.281  0.00  0.00    +0.186 C 
BRANCH   5   6
ATOM      6  C   UNL     1       0.190   0.233   0.958  0.00  0.00    +0.328 C 
ATOM      7  O   UNL     1      -0.012  -0.370   2.048  0.00  0.00    -0.249 OA
BRANCH   6   9
ATOM      8  C   UNL     1      -0.196   2.431   2.024  0.00  0.00    +0.280 C 
ATOM      9  O   UNL     1       0.113   1.628   0.893  0.00  0.00    -0.467 OA
ENDBRANCH   6   9
ENDBRANCH   5   6
BRANCH   5  10
ATOM     10  C   UNL     1       1.904  -0.171  -0.823  0.00  0.00    +0.069 C 
BRANCH  10  11
ATOM     11  C   UNL     1       3.000  -0.529   0.148  0.00  0.00    -0.045 A 
ATOM     12  C   UNL     1       3.498   0.433   1.043  0.00  0.00    +0.004 A 
ATOM     13  C   UNL     1       4.494   0.089   1.962  0.00  0.00    +0.000 A 
ATOM     14  C   UNL     1       4.993  -1.216   2.000  0.00  0.00    +0.000 A 
ATOM     15  C   UNL     1       4.494  -2.181   1.120  0.00  0.00    +0.000 A 
ATOM     16  C   UNL     1       3.498  -1.841   0.199  0.00  0.00    +0.004 A 
ENDBRANCH  10  11
ENDBRANCH   5  10
ENDBRANCH   1   5
BRANCH   2  17
ATOM     17  C   UNL     1      -2.933  -0.311  -2.098  0.00  0.00    +0.148 C 
BRANCH  17  18
ATOM     18  N   UNL     1      -4.015  -1.296  -2.185  0.00  0.00    -0.320 NA
ATOM     19  H   UNL     1      -4.720  -0.956  -2.879  0.00  0.00    +0.119 HD
ATOM     20  H   UNL     1      -3.621  -2.181  -2.582  0.00  0.00    +0.119 HD
ENDBRANCH  17  18
BRANCH  17  21
ATOM     21  C   UNL     1      -3.477   1.063  -1.657  0.00  0.00    +0.148 C 
BRANCH  21  22
ATOM     22  C   UNL     1      -4.141   1.013  -0.312  0.00  0.00    +0.307 C 
ATOM     23  O   UNL     1      -3.487   1.295   0.727  0.00  0.00    -0.251 OA
BRANCH  22  24
ATOM     24  O   UNL     1      -5.473   0.627  -0.211  0.00  0.00    -0.481 OA
ATOM     25  H   UNL     1      -5.935   0.593   0.688  0.00  0.00    +0.295 HD
ENDBRANCH  22  24
ENDBRANCH  21  22
ENDBRANCH  17  21
ENDBRANCH   2  17
TORSDOF 10
