REMARK  Name = 
REMARK  8 active torsions:
REMARK  status: ('A' for Active; 'I' for Inactive)
REMARK    1  A    between atoms: C_1  and  O_2
REMARK    2  A    between atoms: O_2  and  C_3
REMARK    3  A    between atoms: C_6  and  C_7
REMARK    4  A    between atoms: C_7  and  C_8
REMARK    5  A    between atoms: C_8  and  N_9
REMARK    6  A    between atoms: C_12  and  N_15
REMARK    7  A    between atoms: N_24  and  C_25
REMARK    8  A    between atoms: C_25  and  C_26
REMARK                            x       y       z     vdW  Elec       q    Type
REMARK                         _______ _______ _______ _____ _____    ______ ____
ROOT
ATOM      1  N   UNL     1      -1.511   0.782   1.869  0.00  0.00    -0.312 N 
ATOM      2  C   UNL     1      -2.717   1.512   1.608  0.00  0.00    +0.197 A 
ATOM      3  N   UNL     1      -2.720   2.748   1.044  0.00  0.00    -0.214 NA
ATOM      4  C   UNL     1      -4.033   3.017   0.927  0.00  0.00    +0.091 A 
ATOM      5  C   UNL     1      -4.616   4.153   0.372  0.00  0.00    +0.030 A 
ATOM      6  C   UNL     1      -6.020   4.204   0.304  0.00  0.00    +0.002 A 
ATOM      7  C   UNL     1      -6.798   3.125   0.780  0.00  0.00    +0.002 A 
ATOM      8  C   UNL     1      -6.181   1.988   1.331  0.00  0.00    +0.028 A 
ATOM      9  C   UNL     1      -4.784   1.974   1.395  0.00  0.00    +0.070 A 
ATOM     10  N   UNL     1      -3.959   1.010   1.844  0.00  0.00    -0.307 N 
ATOM     11  H   UNL     1      -1.529   0.035   2.599  0.00  0.00    +0.149 HD
ENDROOT
BRANCH   1  15
ATOM     12  N   UNL     1       1.960   0.000  -0.509  0.00  0.00    -0.302 NA
ATOM     13  C   UNL     1       0.840   0.723  -1.149  0.00  0.00    +0.086 C 
ATOM     14  C   UNL     1      -0.474   0.612  -0.354  0.00  0.00    +0.037 C 
ATOM     15  C   UNL     1      -0.280   1.026   1.114  0.00  0.00    +0.075 C 
ATOM     16  C   UNL     1       0.885   0.236   1.730  0.00  0.00    +0.037 C 
ATOM     17  C   UNL     1       2.158   0.417   0.894  0.00  0.00    +0.086 C 
BRANCH  12  18
ATOM     18  C   UNL     1       1.889  -1.470  -0.685  0.00  0.00    +0.089 C 
BRANCH  18  19
ATOM     19  C   UNL     1       2.740  -1.898  -1.883  0.00  0.00    +0.050 C 
BRANCH  19  23
ATOM     20  C   UNL     1       6.902  -1.030  -1.096  0.00  0.00    +0.120 A 
ATOM     21  C   UNL     1       6.109  -0.116  -1.816  0.00  0.00    +0.046 A 
ATOM     22  C   UNL     1       4.766  -0.403  -2.081  0.00  0.00    +0.007 A 
ATOM     23  C   UNL     1       4.199  -1.609  -1.641  0.00  0.00    -0.046 A 
ATOM     24  C   UNL     1       4.989  -2.517  -0.919  0.00  0.00    +0.007 A 
ATOM     25  C   UNL     1       6.330  -2.230  -0.655  0.00  0.00    +0.046 A 
BRANCH  20  27
ATOM     26  C   UNL     1       8.951   0.400  -1.163  0.00  0.00    +0.277 C 
ATOM     27  O   UNL     1       8.250  -0.784  -0.797  0.00  0.00    -0.495 OA
ENDBRANCH  20  27
ENDBRANCH  19  23
ENDBRANCH  18  19
ENDBRANCH  12  18
ENDBRANCH   1  15
BRANCH  10  28
ATOM     28  C   UNL     1      -4.303  -0.354   2.257  0.00  0.00    +0.160 C 
BRANCH  28  29
ATOM     29  C   UNL     1      -4.062  -1.311   1.119  0.00  0.00    -0.027 A 
ATOM     30  C   UNL     1      -2.946  -2.166   1.127  0.00  0.00    +0.008 A 
ATOM     31  C   UNL     1      -2.691  -3.002   0.035  0.00  0.00    +0.038 A 
ATOM     32  C   UNL     1      -3.548  -2.995  -1.068  0.00  0.00    +0.123 A 
ATOM     33  F   UNL     1      -3.298  -3.804  -2.127  0.00  0.00    -0.205 F 
ATOM     34  C   UNL     1      -4.662  -2.150  -1.081  0.00  0.00    +0.038 A 
ATOM     35  C   UNL     1      -4.918  -1.310   0.006  0.00  0.00    +0.008 A 
ENDBRANCH  28  29
ENDBRANCH  10  28
TORSDOF 7
