REMARK  Name = 
REMARK  27 active torsions:
REMARK  status: ('A' for Active; 'I' for Inactive)
REMARK    1  A    between atoms: C_1  and  O_2
REMARK    2  A    between atoms: O_2  and  C_3
REMARK    3  A    between atoms: N_5  and  C_6
REMARK    4  A    between atoms: C_6  and  C_7
REMARK    5  A    between atoms: C_6  and  C_48
REMARK    6  A    between atoms: N_9  and  C_10
REMARK    7  A    between atoms: C_10  and  C_11
REMARK    8  A    between atoms: C_10  and  C_18
REMARK    9  A    between atoms: C_11  and  C_12
REMARK   10  A    between atoms: C_18  and  O_19
REMARK   11  A    between atoms: C_18  and  C_20
REMARK   12  A    between atoms: C_20  and  N_21
REMARK   13  A    between atoms: N_21  and  C_22
REMARK   14  A    between atoms: N_21  and  N_35
REMARK   15  A    between atoms: C_22  and  C_23
REMARK   16  A    between atoms: C_26  and  C_29
REMARK   17  A    between atoms: C_36  and  C_38
REMARK   18  A    between atoms: C_38  and  N_39
REMARK   19  A    between atoms: C_38  and  C_44
REMARK   20  A    between atoms: C_40  and  O_42
REMARK   21  A    between atoms: O_42  and  C_43
REMARK   22  A    between atoms: C_44  and  C_45
REMARK   23  A    between atoms: C_44  and  C_46
REMARK   24  A    between atoms: C_44  and  C_47
REMARK   25  A    between atoms: C_48  and  C_49
REMARK   26  A    between atoms: C_48  and  C_50
REMARK   27  A    between atoms: C_48  and  C_51
REMARK                            x       y       z     vdW  Elec       q    Type
REMARK                         _______ _______ _______ _____ _____    ______ ____
ROOT
ATOM      1  N   UNL     1       0.716  -0.612   1.685  0.00  0.00    -0.220 NA
ENDROOT
BRANCH   1   2
ATOM      2  N   UNL     1       1.722  -1.602   1.674  0.00  0.00    -0.246 N 
ATOM      3  C   UNL     1       2.862  -1.489   0.808  0.00  0.00    +0.248 C 
ATOM      4  O   UNL     1       2.994  -0.468   0.080  0.00  0.00    -0.272 OA
ATOM      5  H   UNL     1       1.637  -2.452   2.283  0.00  0.00    +0.169 HD
BRANCH   3   6
ATOM      6  C   UNL     1       3.908  -2.586   0.767  0.00  0.00    +0.169 C 
BRANCH   6   7
ATOM      7  N   UNL     1       4.612  -2.537  -0.526  0.00  0.00    -0.269 N 
ATOM      8  C   UNL     1       4.716  -3.651  -1.423  0.00  0.00    +0.401 C 
ATOM      9  O   UNL     1       4.095  -4.728  -1.191  0.00  0.00    -0.226 OA
ATOM     10  H   UNL     1       5.113  -1.658  -0.798  0.00  0.00    +0.153 HD
BRANCH   8  11
ATOM     11  O   UNL     1       5.510  -3.526  -2.567  0.00  0.00    -0.454 OA
ATOM     12  C   UNL     1       5.663  -4.577  -3.519  0.00  0.00    +0.282 C 
ENDBRANCH   8  11
ENDBRANCH   6   7
BRANCH   6  13
ATOM     13  C   UNL     1       4.938  -2.528   1.959  0.00  0.00    -0.011 C 
ATOM     14  C   UNL     1       4.212  -2.640   3.323  0.00  0.00    +0.013 C 
ATOM     15  C   UNL     1       5.759  -1.215   1.951  0.00  0.00    +0.013 C 
ATOM     16  C   UNL     1       5.914  -3.728   1.854  0.00  0.00    +0.013 C 
ENDBRANCH   6  13
ENDBRANCH   3   6
ENDBRANCH   1   2
BRANCH   1  17
ATOM     17  C   UNL     1      -0.559  -1.248   2.083  0.00  0.00    +0.139 C 
BRANCH  17  18
ATOM     18  C   UNL     1      -1.774  -0.417   1.600  0.00  0.00    +0.151 C 
BRANCH  18  19
ATOM     19  O   UNL     1      -2.813  -0.551   2.536  0.00  0.00    -0.389 OA
ATOM     20  H   UNL     1      -2.572   0.026   3.308  0.00  0.00    +0.210 HD
ENDBRANCH  18  19
BRANCH  18  21
ATOM     21  C   UNL     1      -2.303  -0.870   0.218  0.00  0.00    +0.107 C 
BRANCH  21  24
ATOM     22  C   UNL     1      -4.842  -0.662  -0.032  0.00  0.00    +0.234 C 
ATOM     23  O   UNL     1      -4.996  -1.909   0.085  0.00  0.00    -0.274 OA
ATOM     24  N   UNL     1      -3.518  -0.106  -0.101  0.00  0.00    -0.308 N 
ATOM     25  H   UNL     1      -3.419   0.924  -0.247  0.00  0.00    +0.149 HD
BRANCH  22  26
ATOM     26  C   UNL     1      -6.065   0.226  -0.120  0.00  0.00    +0.167 C 
BRANCH  26  29
ATOM     27  C   UNL     1      -6.175   1.460   2.099  0.00  0.00    +0.401 C 
ATOM     28  O   UNL     1      -6.626   0.433   2.677  0.00  0.00    -0.226 OA
ATOM     29  N   UNL     1      -5.864   1.425   0.704  0.00  0.00    -0.269 N 
ATOM     30  H   UNL     1      -5.403   2.270   0.300  0.00  0.00    +0.153 HD
BRANCH  27  32
ATOM     31  C   UNL     1      -6.314   2.763   4.198  0.00  0.00    +0.282 C 
ATOM     32  O   UNL     1      -5.980   2.641   2.818  0.00  0.00    -0.454 OA
ENDBRANCH  27  32
ENDBRANCH  26  29
BRANCH  26  33
ATOM     33  C   UNL     1      -6.502   0.567  -1.590  0.00  0.00    -0.011 C 
ATOM     34  C   UNL     1      -6.837  -0.740  -2.344  0.00  0.00    +0.013 C 
ATOM     35  C   UNL     1      -7.780   1.437  -1.564  0.00  0.00    +0.013 C 
ATOM     36  C   UNL     1      -5.412   1.321  -2.381  0.00  0.00    +0.013 C 
ENDBRANCH  26  33
ENDBRANCH  22  26
ENDBRANCH  21  24
BRANCH  21  37
ATOM     37  C   UNL     1      -1.255  -0.671  -0.898  0.00  0.00    +0.060 C 
BRANCH  37  38
ATOM     38  C   UNL     1      -1.806  -1.058  -2.247  0.00  0.00    -0.046 A 
ATOM     39  C   UNL     1      -2.143  -2.395  -2.512  0.00  0.00    +0.004 A 
ATOM     40  C   UNL     1      -2.719  -2.750  -3.735  0.00  0.00    +0.000 A 
ATOM     41  C   UNL     1      -2.953  -1.775  -4.707  0.00  0.00    +0.000 A 
ATOM     42  C   UNL     1      -2.593  -0.448  -4.466  0.00  0.00    +0.000 A 
ATOM     43  C   UNL     1      -2.022  -0.085  -3.238  0.00  0.00    +0.004 A 
ENDBRANCH  37  38
ENDBRANCH  21  37
ENDBRANCH  18  21
ENDBRANCH  17  18
ENDBRANCH   1  17
BRANCH   1  44
ATOM     44  C   UNL     1       1.109   0.453   2.638  0.00  0.00    +0.140 C 
BRANCH  44  45
ATOM     45  C   UNL     1       1.921   1.510   1.937  0.00  0.00    -0.032 A 
ATOM     46  C   UNL     1       1.394   2.165   0.812  0.00  0.00    +0.005 A 
ATOM     47  C   UNL     1       2.170   3.088   0.110  0.00  0.00    +0.010 A 
ATOM     48  C   UNL     1       3.481   3.398   0.531  0.00  0.00    +0.000 A 
ATOM     49  C   UNL     1       3.980   2.782   1.700  0.00  0.00    +0.010 A 
ATOM     50  C   UNL     1       3.210   1.840   2.390  0.00  0.00    +0.005 A 
BRANCH  48  51
ATOM     51  C   UNL     1       4.300   4.361  -0.260  0.00  0.00    +0.071 A 
ATOM     52  C   UNL     1       5.705   4.430  -0.137  0.00  0.00    +0.028 A 
ATOM     53  C   UNL     1       6.416   5.337  -0.929  0.00  0.00    +0.004 A 
ATOM     54  C   UNL     1       5.747   6.144  -1.854  0.00  0.00    +0.020 A 
ATOM     55  C   UNL     1       4.361   6.043  -1.962  0.00  0.00    +0.111 A 
ATOM     56  N   UNL     1       3.676   5.174  -1.175  0.00  0.00    -0.255 NA
ENDBRANCH  48  51
ENDBRANCH  44  45
ENDBRANCH   1  44
TORSDOF 19
