REMARK  Name = 
REMARK  11 active torsions:
REMARK  status: ('A' for Active; 'I' for Inactive)
REMARK    1  A    between atoms: C_1  and  C_2
REMARK    2  A    between atoms: C_2  and  C_3
REMARK    3  A    between atoms: C_2  and  N_4
REMARK    4  A    between atoms: N_4  and  C_5
REMARK    5  A    between atoms: C_5  and  C_6
REMARK    6  A    between atoms: C_6  and  O_7
REMARK    7  A    between atoms: C_6  and  C_8
REMARK    8  A    between atoms: C_8  and  O_9
REMARK    9  A    between atoms: O_9  and  C_10
REMARK   10  A    between atoms: C_13  and  C_14
REMARK   11  A    between atoms: C_14  and  C_15
REMARK                            x       y       z     vdW  Elec       q    Type
REMARK                         _______ _______ _______ _____ _____    ______ ____
ROOT
ATOM      1  C   UNL     1      -1.431   0.204   0.224  0.00  0.00    +0.121 A 
ATOM      2  C   UNL     1      -2.104  -0.686  -0.620  0.00  0.00    +0.046 A 
ATOM      3  C   UNL     1      -3.391  -1.131  -0.303  0.00  0.00    +0.007 A 
ATOM      4  C   UNL     1      -4.020  -0.698   0.874  0.00  0.00    -0.038 A 
ATOM      5  C   UNL     1      -3.352   0.203   1.718  0.00  0.00    +0.007 A 
ATOM      6  C   UNL     1      -2.066   0.649   1.400  0.00  0.00    +0.046 A 
ENDROOT
BRANCH   1   7
ATOM      7  O   UNL     1      -0.143   0.620  -0.140  0.00  0.00    -0.489 OA
BRANCH   7   8
ATOM      8  C   UNL     1       0.658   1.528   0.615  0.00  0.00    +0.261 C 
BRANCH   8   9
ATOM      9  C   UNL     1       2.011   1.740  -0.077  0.00  0.00    +0.166 C 
BRANCH   9  10
ATOM     10  O   UNL     1       1.810   2.218  -1.382  0.00  0.00    -0.387 OA
ATOM     11  H   UNL     1       1.563   3.176  -1.302  0.00  0.00    +0.210 HD
ENDBRANCH   9  10
BRANCH   9  12
ATOM     12  C   UNL     1       2.817   0.434  -0.125  0.00  0.00    +0.115 C 
BRANCH  12  13
ATOM     13  N   UNL     1       4.150   0.686  -0.699  0.00  0.00    -0.311 NA
ATOM     14  H   UNL     1       4.039   0.816  -1.733  0.00  0.00    +0.122 HD
BRANCH  13  16
ATOM     15  C   UNL     1       4.604  -1.784  -0.887  0.00  0.00    +0.023 C 
ATOM     16  C   UNL     1       5.129  -0.398  -0.477  0.00  0.00    +0.048 C 
ATOM     17  C   UNL     1       5.647  -0.395   0.966  0.00  0.00    +0.023 C 
ENDBRANCH  13  16
ENDBRANCH  12  13
ENDBRANCH   9  12
ENDBRANCH   8   9
ENDBRANCH   7   8
ENDBRANCH   1   7
BRANCH   4  18
ATOM     18  C   UNL     1      -5.416  -1.151   1.203  0.00  0.00    +0.130 C 
BRANCH  18  19
ATOM     19  C   UNL     1      -6.414  -0.144   0.720  0.00  0.00    +0.215 C 
ATOM     20  N   UNL     1      -6.793  -0.104  -0.655  0.00  0.00    -0.329 N 
ATOM     21  O   UNL     1      -6.895   0.697   1.526  0.00  0.00    -0.276 OA
ATOM     22  H   UNL     1      -6.386  -0.781  -1.339  0.00  0.00    +0.145 HD
ATOM     23  H   UNL     1      -7.483   0.604  -0.992  0.00  0.00    +0.145 HD
ENDBRANCH  18  19
ENDBRANCH   4  18
TORSDOF 9
