REMARK  Name = 
REMARK  8 active torsions:
REMARK  status: ('A' for Active; 'I' for Inactive)
REMARK    1  A    between atoms: C_1  and  N_2
REMARK    2  A    between atoms: N_2  and  C_3
REMARK    3  A    between atoms: C_3  and  C_4
REMARK    4  A    between atoms: C_4  and  C_5
REMARK    5  A    between atoms: C_5  and  O_6
REMARK    6  A    between atoms: C_5  and  C_14
REMARK    7  A    between atoms: O_6  and  C_7
REMARK    8  A    between atoms: C_12  and  C_13
REMARK                            x       y       z     vdW  Elec       q    Type
REMARK                         _______ _______ _______ _____ _____    ______ ____
ROOT
ATOM      1  C   UNL     1       0.451   0.416  -0.162  0.00  0.00    +0.205 C 
ENDROOT
BRANCH   1   2
ATOM      2  C   UNL     1       0.607  -0.768   0.772  0.00  0.00    -0.007 A 
ATOM      3  C   UNL     1       1.067  -0.577   2.086  0.00  0.00    +0.007 A 
ATOM      4  C   UNL     1       1.224  -1.670   2.945  0.00  0.00    +0.000 A 
ATOM      5  C   UNL     1       0.928  -2.960   2.498  0.00  0.00    +0.000 A 
ATOM      6  C   UNL     1       0.479  -3.161   1.190  0.00  0.00    +0.000 A 
ATOM      7  C   UNL     1       0.321  -2.072   0.328  0.00  0.00    +0.007 A 
ENDBRANCH   1   2
BRANCH   1   8
ATOM      8  C   UNL     1       1.588   0.458  -1.198  0.00  0.00    +0.064 C 
BRANCH   8   9
ATOM      9  C   UNL     1       2.957   0.737  -0.559  0.00  0.00    +0.084 C 
BRANCH   9  11
ATOM     10  C   UNL     1       4.159   2.160  -2.114  0.00  0.00    +0.101 C 
ATOM     11  N   UNL     1       4.001   0.799  -1.592  0.00  0.00    -0.319 NA
ATOM     12  H   UNL     1       4.911   0.535  -1.147  0.00  0.00    +0.122 HD
ENDBRANCH   9  11
ENDBRANCH   8   9
ENDBRANCH   1   8
BRANCH   1  13
ATOM     13  O   UNL     1      -0.795   0.332  -0.858  0.00  0.00    -0.484 OA
BRANCH  13  14
ATOM     14  C   UNL     1      -2.070   0.465  -0.277  0.00  0.00    +0.124 A 
ATOM     15  C   UNL     1      -2.245   0.818   1.076  0.00  0.00    +0.046 A 
ATOM     16  C   UNL     1      -3.527   0.935   1.616  0.00  0.00    +0.004 A 
ATOM     17  C   UNL     1      -4.647   0.705   0.817  0.00  0.00    +0.000 A 
ATOM     18  C   UNL     1      -4.489   0.358  -0.526  0.00  0.00    +0.007 A 
ATOM     19  C   UNL     1      -3.204   0.238  -1.081  0.00  0.00    -0.009 A 
ATOM     20  C   UNL     1      -3.041  -0.146  -2.525  0.00  0.00    +0.047 C 
ENDBRANCH  13  14
ENDBRANCH   1  13
TORSDOF 6
