REMARK  Name = 
REMARK  17 active torsions:
REMARK  status: ('A' for Active; 'I' for Inactive)
REMARK    1  A    between atoms: C_1  and  C_2
REMARK    2  A    between atoms: C_2  and  C_3
REMARK    3  A    between atoms: C_2  and  C_4
REMARK    4  A    between atoms: C_5  and  C_6
REMARK    5  A    between atoms: N_8  and  C_9
REMARK    6  A    between atoms: C_15  and  C_36
REMARK    7  A    between atoms: C_16  and  C_29
REMARK    8  A    between atoms: N_17  and  C_18
REMARK    9  A    between atoms: C_18  and  C_19
REMARK   10  A    between atoms: C_19  and  C_20
REMARK   11  A    between atoms: C_20  and  O_21
REMARK   12  A    between atoms: C_20  and  C_22
REMARK   13  A    between atoms: C_22  and  C_23
REMARK   14  A    between atoms: C_23  and  O_24
REMARK   15  A    between atoms: C_23  and  C_25
REMARK   16  A    between atoms: C_25  and  C_26
REMARK   17  A    between atoms: C_26  and  O_27
REMARK                            x       y       z     vdW  Elec       q    Type
REMARK                         _______ _______ _______ _____ _____    ______ ____
ROOT
ATOM      1  C   UNL     1      -0.268  -1.379   0.008  0.00  0.00    +0.035 A 
ATOM      2  C   UNL     1      -1.534  -0.786  -0.054  0.00  0.00    +0.066 A 
ATOM      3  C   UNL     1      -1.570   0.187   0.935  0.00  0.00    +0.020 A 
ATOM      4  C   UNL     1      -0.341   0.149   1.570  0.00  0.00    +0.058 A 
ATOM      5  N   UNL     1       0.440  -0.811   1.021  0.00  0.00    -0.342 N 
ENDROOT
BRANCH   4   6
ATOM      6  C   UNL     1       0.008   0.926   2.774  0.00  0.00    -0.001 A 
ATOM      7  C   UNL     1       0.938   1.973   2.701  0.00  0.00    +0.013 A 
ATOM      8  C   UNL     1       1.257   2.710   3.845  0.00  0.00    +0.039 A 
ATOM      9  C   UNL     1       0.644   2.409   5.066  0.00  0.00    +0.123 A 
ATOM     10  F   UNL     1       0.953   3.124   6.175  0.00  0.00    -0.205 F 
ATOM     11  C   UNL     1      -0.293   1.374   5.141  0.00  0.00    +0.039 A 
ATOM     12  C   UNL     1      -0.614   0.635   3.998  0.00  0.00    +0.013 A 
ENDBRANCH   4   6
BRANCH   3  13
ATOM     13  C   UNL     1      -2.717   1.052   1.296  0.00  0.00    -0.015 A 
ATOM     14  C   UNL     1      -2.531   2.432   1.483  0.00  0.00    +0.008 A 
ATOM     15  C   UNL     1      -3.614   3.251   1.818  0.00  0.00    +0.001 A 
ATOM     16  C   UNL     1      -4.889   2.699   1.968  0.00  0.00    +0.000 A 
ATOM     17  C   UNL     1      -5.083   1.328   1.784  0.00  0.00    +0.001 A 
ATOM     18  C   UNL     1      -4.002   0.505   1.451  0.00  0.00    +0.008 A 
ENDBRANCH   3  13
BRANCH   2  19
ATOM     19  C   UNL     1      -2.640  -1.088  -0.982  0.00  0.00    +0.251 C 
ATOM     20  O   UNL     1      -3.058  -2.271  -1.084  0.00  0.00    -0.270 OA
ATOM     21  N   UNL     1      -3.289  -0.021  -1.692  0.00  0.00    -0.281 N 
ATOM     22  H   UNL     1      -2.984   0.959  -1.494  0.00  0.00    +0.155 HD
BRANCH  21  23
ATOM     23  C   UNL     1      -4.448  -0.201  -2.522  0.00  0.00    +0.034 A 
ATOM     24  C   UNL     1      -5.471   0.759  -2.490  0.00  0.00    +0.023 A 
ATOM     25  C   UNL     1      -6.602   0.613  -3.299  0.00  0.00    +0.002 A 
ATOM     26  C   UNL     1      -6.713  -0.485  -4.156  0.00  0.00    +0.000 A 
ATOM     27  C   UNL     1      -5.689  -1.434  -4.212  0.00  0.00    +0.002 A 
ATOM     28  C   UNL     1      -4.556  -1.292  -3.404  0.00  0.00    +0.023 A 
ENDBRANCH  21  23
ENDBRANCH   2  19
BRANCH   1  30
ATOM     29  C   UNL     1      -0.235  -3.867  -0.410  0.00  0.00    +0.014 C 
ATOM     30  C   UNL     1       0.270  -2.499  -0.876  0.00  0.00    +0.030 C 
ATOM     31  C   UNL     1       0.001  -2.266  -2.369  0.00  0.00    +0.014 C 
ENDBRANCH   1  30
BRANCH   5  32
ATOM     32  C   UNL     1       1.785  -1.190   1.481  0.00  0.00    +0.124 C 
BRANCH  32  33
ATOM     33  C   UNL     1       2.862  -0.470   0.659  0.00  0.00    +0.053 C 
BRANCH  33  34
ATOM     34  C   UNL     1       4.281  -0.925   1.070  0.00  0.00    +0.119 C 
BRANCH  34  35
ATOM     35  O   UNL     1       4.527  -2.266   0.719  0.00  0.00    -0.392 OA
ATOM     36  H   UNL     1       4.251  -2.394  -0.225  0.00  0.00    +0.210 HD
ENDBRANCH  34  35
BRANCH  34  37
ATOM     37  C   UNL     1       5.402   0.004   0.548  0.00  0.00    +0.063 C 
BRANCH  37  38
ATOM     38  C   UNL     1       5.600   0.011  -0.988  0.00  0.00    +0.128 C 
BRANCH  38  39
ATOM     39  O   UNL     1       4.484   0.561  -1.644  0.00  0.00    -0.391 OA
ATOM     40  H   UNL     1       4.374   1.494  -1.320  0.00  0.00    +0.210 HD
ENDBRANCH  38  39
BRANCH  38  41
ATOM     41  C   UNL     1       6.877   0.788  -1.362  0.00  0.00    +0.151 C 
BRANCH  41  42
ATOM     42  C   UNL     1       7.113   0.762  -2.841  0.00  0.00    +0.307 C 
ATOM     43  O   UNL     1       7.747  -0.193  -3.362  0.00  0.00    -0.251 OA
BRANCH  42  44
ATOM     44  O   UNL     1       6.599   1.776  -3.643  0.00  0.00    -0.481 OA
ATOM     45  H   UNL     1       6.742   1.768  -4.646  0.00  0.00    +0.295 HD
ENDBRANCH  42  44
ENDBRANCH  41  42
ENDBRANCH  38  41
ENDBRANCH  37  38
ENDBRANCH  34  37
ENDBRANCH  33  34
ENDBRANCH  32  33
ENDBRANCH   5  32
TORSDOF 15
