REMARK  Name = 
REMARK  3 active torsions:
REMARK  status: ('A' for Active; 'I' for Inactive)
REMARK    1  A    between atoms: O_1  and  C_2
REMARK    2  A    between atoms: C_3  and  C_4
REMARK    3  A    between atoms: C_7  and  C_10
REMARK                            x       y       z     vdW  Elec       q    Type
REMARK                         _______ _______ _______ _____ _____    ______ ____
ROOT
ATOM      1  C   UNL     1      -2.353   1.508   1.215  0.00  0.00    +0.171 C 
ATOM      2  C   UNL     1      -1.646   0.652   0.438  0.00  0.00    +0.048 C 
ATOM      3  C   UNL     1      -2.372  -0.339  -0.412  0.00  0.00    +0.194 C 
ATOM      4  O   UNL     1      -1.729  -1.121  -1.161  0.00  0.00    -0.287 OA
ATOM      5  C   UNL     1      -3.851  -0.412  -0.386  0.00  0.00    +0.033 A 
ATOM      6  C   UNL     1      -4.545  -1.352  -1.170  0.00  0.00    +0.012 A 
ATOM      7  C   UNL     1      -5.940  -1.407  -1.133  0.00  0.00    +0.001 A 
ATOM      8  C   UNL     1      -6.654  -0.529  -0.318  0.00  0.00    +0.001 A 
ATOM      9  C   UNL     1      -5.976   0.409   0.465  0.00  0.00    +0.012 A 
ATOM     10  C   UNL     1      -4.571   0.473   0.436  0.00  0.00    +0.036 A 
ATOM     11  C   UNL     1      -3.835   1.458   1.254  0.00  0.00    +0.228 C 
ATOM     12  O   UNL     1      -4.466   2.263   1.991  0.00  0.00    -0.283 OA
ENDROOT
BRANCH   2  13
ATOM     13  C   UNL     1      -0.116   0.717   0.400  0.00  0.00    +0.027 C 
ATOM     14  C   UNL     1       0.553  -0.634   0.791  0.00  0.00    +0.009 C 
ATOM     15  C   UNL     1       1.427  -1.250  -0.316  0.00  0.00    +0.009 C 
ATOM     16  C   UNL     1       2.412  -0.253  -0.985  0.00  0.00    +0.019 C 
ATOM     17  C   UNL     1       1.902   1.209  -1.019  0.00  0.00    +0.009 C 
ATOM     18  C   UNL     1       0.375   1.275  -0.951  0.00  0.00    +0.009 C 
BRANCH  16  19
ATOM     19  C   UNL     1       3.805  -0.349  -0.383  0.00  0.00    -0.044 A 
ATOM     20  C   UNL     1       4.060   0.058   0.942  0.00  0.00    +0.005 A 
ATOM     21  C   UNL     1       5.342  -0.056   1.485  0.00  0.00    +0.020 A 
ATOM     22  C   UNL     1       6.386  -0.581   0.718  0.00  0.00    +0.041 A 
ATOM     23 CL   UNL     1       7.994  -0.724   1.403  0.00  0.00    -0.084 Cl
ATOM     24  C   UNL     1       6.145  -0.993  -0.595  0.00  0.00    +0.020 A 
ATOM     25  C   UNL     1       4.864  -0.881  -1.143  0.00  0.00    +0.005 A 
ENDBRANCH  16  19
ENDBRANCH   2  13
BRANCH   1  26
ATOM     26  O   UNL     1      -1.691   2.459   1.995  0.00  0.00    -0.503 OA
ATOM     27  H   UNL     1      -2.188   3.115   2.585  0.00  0.00    +0.292 HD
ENDBRANCH   1  26
TORSDOF 3
