REMARK  Name = 
REMARK  36 active torsions:
REMARK  status: ('A' for Active; 'I' for Inactive)
REMARK    1  A    between atoms: C_1  and  O_2
REMARK    2  A    between atoms: O_2  and  C_3
REMARK    3  A    between atoms: C_4  and  O_5
REMARK    4  A    between atoms: O_5  and  C_6
REMARK    5  A    between atoms: C_8  and  C_9
REMARK    6  A    between atoms: C_9  and  C_10
REMARK    7  A    between atoms: C_13  and  O_14
REMARK    8  A    between atoms: O_14  and  C_15
REMARK    9  A    between atoms: C_16  and  O_17
REMARK   10  A    between atoms: O_17  and  C_18
REMARK   11  A    between atoms: N_23  and  C_24
REMARK   12  A    between atoms: N_23  and  C_25
REMARK   13  A    between atoms: C_25  and  C_26
REMARK   14  A    between atoms: C_26  and  C_27
REMARK   15  A    between atoms: C_27  and  O_29
REMARK   16  A    between atoms: O_29  and  C_30
REMARK   17  A    between atoms: C_30  and  C_31
REMARK   18  A    between atoms: C_31  and  C_32
REMARK   19  A    between atoms: C_32  and  C_33
REMARK   20  A    between atoms: C_33  and  C_34
REMARK   21  A    between atoms: C_34  and  O_35
REMARK   22  A    between atoms: O_35  and  C_36
REMARK   23  A    between atoms: C_36  and  C_38
REMARK   24  A    between atoms: C_38  and  C_39
REMARK   25  A    between atoms: C_39  and  N_40
REMARK   26  A    between atoms: N_40  and  C_41
REMARK   27  A    between atoms: C_46  and  O_47
REMARK   28  A    between atoms: O_47  and  C_48
REMARK   29  A    between atoms: C_49  and  O_50
REMARK   30  A    between atoms: O_50  and  C_51
REMARK   31  A    between atoms: C_54  and  C_55
REMARK   32  A    between atoms: C_55  and  C_56
REMARK   33  A    between atoms: C_58  and  O_59
REMARK   34  A    between atoms: O_59  and  C_60
REMARK   35  A    between atoms: C_61  and  O_62
REMARK   36  A    between atoms: O_62  and  C_63
REMARK                            x       y       z     vdW  Elec       q    Type
REMARK                         _______ _______ _______ _____ _____    ______ ____
ROOT
ATOM      1  C   UNL     1       0.294  -1.355  -1.551  0.00  0.00    +0.007 C 
ENDROOT
BRANCH   1   2
ATOM      2  C   UNL     1      -0.141  -0.127  -0.728  0.00  0.00    +0.041 C 
BRANCH   2   3
ATOM      3  C   UNL     1       0.940   0.961  -0.718  0.00  0.00    +0.232 C 
BRANCH   3   4
ATOM      4  O   UNL     1       2.181   0.439  -0.248  0.00  0.00    -0.465 OA
BRANCH   4   5
ATOM      5  C   UNL     1       2.429   0.125   1.092  0.00  0.00    +0.305 C 
ATOM      6  O   UNL     1       1.680   0.562   2.008  0.00  0.00    -0.251 OA
BRANCH   5   7
ATOM      7  C   UNL     1       3.568  -0.790   1.427  0.00  0.00    +0.102 C 
BRANCH   7   8
ATOM      8  C   UNL     1       4.908  -0.210   0.906  0.00  0.00    -0.063 C 
BRANCH   8  18
ATOM      9  C   UNL     1       7.267  -0.532   0.257  0.00  0.00    -0.030 C 
ATOM     10  C   UNL     1       8.533  -1.354   0.456  0.00  0.00    -0.053 A 
ATOM     11  C   UNL     1       9.460  -1.485  -0.591  0.00  0.00    +0.051 A 
ATOM     12  C   UNL     1      10.683  -2.150  -0.393  0.00  0.00    +0.162 A 
ATOM     13  C   UNL     1      10.960  -2.730   0.852  0.00  0.00    +0.162 A 
ATOM     14  C   UNL     1      10.014  -2.634   1.889  0.00  0.00    +0.053 A 
ATOM     15  C   UNL     1       8.805  -1.949   1.699  0.00  0.00    -0.044 A 
ATOM     16  C   UNL     1       7.757  -2.019   2.779  0.00  0.00    +0.017 C 
ATOM     17  C   UNL     1       6.497  -1.170   2.508  0.00  0.00    -0.070 C 
ATOM     18  N   UNL     1       6.118  -1.093   1.065  0.00  0.00    +0.384 N 
ATOM     19  C   UNL     1       5.789  -2.457   0.548  0.00  0.00    -0.091 C 
BRANCH  12  20
ATOM     20  O   UNL     1      11.648  -2.252  -1.408  0.00  0.00    -0.491 OA
ATOM     21  C   UNL     1      11.524  -1.667  -2.700  0.00  0.00    +0.277 C 
ENDBRANCH  12  20
BRANCH  13  22
ATOM     22  O   UNL     1      12.183  -3.401   1.015  0.00  0.00    -0.491 OA
ATOM     23  C   UNL     1      12.585  -4.065   2.208  0.00  0.00    +0.277 C 
ENDBRANCH  13  22
BRANCH   9  24
ATOM     24  C   UNL     1       7.590   0.976   0.547  0.00  0.00    +0.025 C 
BRANCH  24  28
ATOM     25  C   UNL     1      10.747   2.343  -2.075  0.00  0.00    +0.161 A 
ATOM     26  C   UNL     1      11.056   1.908  -0.777  0.00  0.00    +0.162 A 
ATOM     27  C   UNL     1      10.018   1.519   0.091  0.00  0.00    +0.053 A 
ATOM     28  C   UNL     1       8.684   1.514  -0.345  0.00  0.00    -0.045 A 
ATOM     29  C   UNL     1       8.386   1.937  -1.648  0.00  0.00    +0.007 A 
ATOM     30  C   UNL     1       9.406   2.359  -2.502  0.00  0.00    +0.049 A 
BRANCH  25  32
ATOM     31  C   UNL     1      11.645   3.127  -4.274  0.00  0.00    +0.277 C 
ATOM     32  O   UNL     1      11.801   2.735  -2.915  0.00  0.00    -0.491 OA
ENDBRANCH  25  32
BRANCH  26  33
ATOM     33  O   UNL     1      12.405   1.855  -0.393  0.00  0.00    -0.491 OA
ATOM     34  C   UNL     1      12.872   1.295   0.830  0.00  0.00    +0.277 C 
ENDBRANCH  26  33
ENDBRANCH  24  28
ENDBRANCH   9  24
ENDBRANCH   8  18
ENDBRANCH   7   8
ENDBRANCH   5   7
ENDBRANCH   4   5
ENDBRANCH   3   4
ENDBRANCH   2   3
ENDBRANCH   1   2
BRANCH   1  35
ATOM     35  C   UNL     1      -0.731  -2.502  -1.507  0.00  0.00    +0.041 C 
BRANCH  35  36
ATOM     36  C   UNL     1      -1.873  -2.330  -2.518  0.00  0.00    +0.232 C 
BRANCH  36  37
ATOM     37  O   UNL     1      -2.733  -1.257  -2.148  0.00  0.00    -0.465 OA
BRANCH  37  38
ATOM     38  C   UNL     1      -3.674  -1.342  -1.116  0.00  0.00    +0.305 C 
ATOM     39  O   UNL     1      -3.915  -2.447  -0.558  0.00  0.00    -0.251 OA
BRANCH  38  40
ATOM     40  C   UNL     1      -4.429  -0.102  -0.740  0.00  0.00    +0.102 C 
BRANCH  40  41
ATOM     41  C   UNL     1      -5.115  -0.196   0.655  0.00  0.00    -0.063 C 
BRANCH  41  42
ATOM     42  N   UNL     1      -6.107   0.896   0.987  0.00  0.00    +0.384 N 
ATOM     43  C   UNL     1      -5.672   2.194   0.387  0.00  0.00    -0.091 C 
ATOM     44  C   UNL     1      -6.083   1.047   2.487  0.00  0.00    -0.070 C 
ATOM     45  C   UNL     1      -7.314   1.755   3.136  0.00  0.00    +0.017 C 
ATOM     46  C   UNL     1      -8.329   2.289   2.161  0.00  0.00    -0.044 A 
ATOM     47  C   UNL     1      -9.128   3.385   2.517  0.00  0.00    +0.053 A 
ATOM     48  C   UNL     1      -9.997   3.971   1.580  0.00  0.00    +0.162 A 
ATOM     49  C   UNL     1     -10.057   3.456   0.280  0.00  0.00    +0.162 A 
ATOM     50  C   UNL     1      -9.267   2.346  -0.065  0.00  0.00    +0.051 A 
ATOM     51  C   UNL     1      -8.446   1.714   0.888  0.00  0.00    -0.053 A 
ATOM     52  C   UNL     1      -7.521   0.534   0.587  0.00  0.00    -0.030 C 
BRANCH  48  53
ATOM     53  O   UNL     1     -10.801   5.079   1.897  0.00  0.00    -0.491 OA
ATOM     54  C   UNL     1     -10.796   5.748   3.153  0.00  0.00    +0.277 C 
ENDBRANCH  48  53
BRANCH  49  55
ATOM     55  O   UNL     1     -10.905   4.084  -0.648  0.00  0.00    -0.491 OA
ATOM     56  C   UNL     1     -11.068   3.671  -2.002  0.00  0.00    +0.277 C 
ENDBRANCH  49  55
BRANCH  52  57
ATOM     57  C   UNL     1      -7.691  -0.084  -0.844  0.00  0.00    +0.025 C 
BRANCH  57  58
ATOM     58  C   UNL     1      -9.062  -0.688  -1.089  0.00  0.00    -0.045 A 
ATOM     59  C   UNL     1      -9.531  -1.745  -0.289  0.00  0.00    +0.053 A 
ATOM     60  C   UNL     1     -10.796  -2.320  -0.522  0.00  0.00    +0.162 A 
ATOM     61  C   UNL     1     -11.592  -1.842  -1.573  0.00  0.00    +0.161 A 
ATOM     62  C   UNL     1     -11.099  -0.823  -2.408  0.00  0.00    +0.049 A 
ATOM     63  C   UNL     1      -9.838  -0.271  -2.181  0.00  0.00    +0.007 A 
BRANCH  60  64
ATOM     64  O   UNL     1     -11.295  -3.370   0.267  0.00  0.00    -0.491 OA
ATOM     65  C   UNL     1     -10.582  -3.987   1.334  0.00  0.00    +0.277 C 
ENDBRANCH  60  64
BRANCH  61  66
ATOM     66  O   UNL     1     -12.862  -2.412  -1.762  0.00  0.00    -0.491 OA
ATOM     67  C   UNL     1     -13.787  -2.003  -2.765  0.00  0.00    +0.277 C 
ENDBRANCH  61  66
ENDBRANCH  57  58
ENDBRANCH  52  57
ENDBRANCH  41  42
ENDBRANCH  40  41
ENDBRANCH  38  40
ENDBRANCH  37  38
ENDBRANCH  36  37
ENDBRANCH  35  36
ENDBRANCH   1  35
TORSDOF 26
