REMARK  Name = 
REMARK  7 active torsions:
REMARK  status: ('A' for Active; 'I' for Inactive)
REMARK    1  A    between atoms: C_1  and  N_2
REMARK    2  A    between atoms: C_8  and  O_10
REMARK    3  A    between atoms: O_10  and  C_11
REMARK    4  A    between atoms: C_11  and  C_13
REMARK    5  A    between atoms: C_13  and  C_14
REMARK    6  A    between atoms: C_13  and  C_16
REMARK    7  A    between atoms: C_14  and  O_15
REMARK                            x       y       z     vdW  Elec       q    Type
REMARK                         _______ _______ _______ _____ _____    ______ ____
ROOT
ATOM      1  C   UNL     1       1.126  -1.033  -0.170  0.00  0.00    +0.317 C 
ATOM      2  O   UNL     1       1.000  -1.736   0.868  0.00  0.00    -0.250 OA
ENDROOT
BRANCH   1   3
ATOM      3  O   UNL     1       0.186  -0.042  -0.473  0.00  0.00    -0.461 OA
BRANCH   3  11
ATOM      4  C   UNL     1      -4.765   0.989   1.810  0.00  0.00    +0.105 C 
ATOM      5  N   UNL     1      -3.458   0.708   1.189  0.00  0.00    -0.299 NA
ATOM      6  C   UNL     1      -3.452  -0.553   0.436  0.00  0.00    +0.060 C 
ATOM      7  C   UNL     1      -4.113  -0.249  -0.918  0.00  0.00    +0.020 C 
ATOM      8  C   UNL     1      -3.888   1.242  -1.116  0.00  0.00    +0.020 C 
ATOM      9  C   UNL     1      -3.115   1.676   0.141  0.00  0.00    +0.060 C 
ATOM     10  C   UNL     1      -1.583   1.586  -0.101  0.00  0.00    +0.063 C 
ATOM     11  C   UNL     1      -0.975   0.217   0.319  0.00  0.00    +0.179 C 
ATOM     12  C   UNL     1      -1.972  -0.980   0.239  0.00  0.00    +0.063 C 
ENDBRANCH   3  11
ENDBRANCH   1   3
BRANCH   1  13
ATOM     13  C   UNL     1       2.318  -1.202  -1.078  0.00  0.00    +0.153 C 
BRANCH  13  14
ATOM     14  C   UNL     1       3.437  -0.244  -0.714  0.00  0.00    -0.032 A 
ATOM     15  C   UNL     1       3.884  -0.110   0.617  0.00  0.00    +0.004 A 
ATOM     16  C   UNL     1       4.944   0.746   0.923  0.00  0.00    +0.000 A 
ATOM     17  C   UNL     1       5.576   1.470  -0.091  0.00  0.00    +0.000 A 
ATOM     18  C   UNL     1       5.148   1.341  -1.413  0.00  0.00    +0.000 A 
ATOM     19  C   UNL     1       4.088   0.487  -1.726  0.00  0.00    +0.004 A 
ENDBRANCH  13  14
BRANCH  13  20
ATOM     20  C   UNL     1       2.824  -2.655  -1.144  0.00  0.00    +0.175 C 
BRANCH  20  21
ATOM     21  O   UNL     1       3.339  -3.068   0.093  0.00  0.00    -0.394 OA
ATOM     22  H   UNL     1       3.808  -3.925  -0.072  0.00  0.00    +0.209 HD
ENDBRANCH  20  21
ENDBRANCH  13  20
ENDBRANCH   1  13
TORSDOF 6
