REMARK  Name = 
REMARK  21 active torsions:
REMARK  status: ('A' for Active; 'I' for Inactive)
REMARK    1  A    between atoms: C_1  and  C_2
REMARK    2  A    between atoms: C_2  and  P_3
REMARK    3  A    between atoms: P_3  and  C_4
REMARK    4  A    between atoms: P_3  and  C_6
REMARK    5  A    between atoms: C_4  and  C_5
REMARK    6  A    between atoms: C_6  and  C_7
REMARK    7  A    between atoms: AU_8  and  S_9
REMARK    8  A    between atoms: S_9  and  C_10
REMARK    9  A    between atoms: C_12  and  C_13
REMARK   10  A    between atoms: C_13  and  O_14
REMARK   11  A    between atoms: O_14  and  C_15
REMARK   12  A    between atoms: C_15  and  C_16
REMARK   13  A    between atoms: C_18  and  O_19
REMARK   14  A    between atoms: O_19  and  C_20
REMARK   15  A    between atoms: C_20  and  C_21
REMARK   16  A    between atoms: C_23  and  O_24
REMARK   17  A    between atoms: O_24  and  C_25
REMARK   18  A    between atoms: C_25  and  C_26
REMARK   19  A    between atoms: C_28  and  O_29
REMARK   20  A    between atoms: O_29  and  C_30
REMARK   21  A    between atoms: C_30  and  C_31
REMARK                            x       y       z     vdW  Elec       q    Type
REMARK                         _______ _______ _______ _____ _____    ______ ____
ROOT
ATOM      1  C   UNL     1       4.438   6.517   1.734  0.00  0.00    +0.000 C 
ATOM      2  O   UNL     1       4.797   5.361   0.951  0.00  0.00    +0.000 OA
ATOM      3  C   UNL     1       6.201   5.326   0.623  0.00  0.00    +0.000 C 
ATOM      4  C   UNL     1       6.607   6.568  -0.178  0.00  0.00    +0.000 C 
ATOM      5  C   UNL     1       6.204   7.828   0.585  0.00  0.00    +0.000 C 
ATOM      6  C   UNL     1       4.737   7.793   0.990  0.00  0.00    +0.000 C 
ENDROOT
BRANCH   1   7
ATOM      7  S   UNL     1       5.410   6.502   3.261  0.00  0.00    +0.000 S 
BRANCH   7   9
ATOM      8  P   UNL     1       4.093  10.581   4.888  0.00  0.00    +0.000 P 
ATOM      9 AU   UNL     1       4.718   8.646   4.117  0.00  0.00    +0.000 Au
BRANCH   8  11
ATOM     10  C   UNL     1       4.406  12.563   6.755  0.00  0.00    +0.000 C 
ATOM     11  C   UNL     1       3.568  12.209   5.538  0.00  0.00    +0.000 C 
ENDBRANCH   8  11
BRANCH   8  12
ATOM     12  C   UNL     1       2.516   9.846   5.455  0.00  0.00    +0.000 C 
ATOM     13  C   UNL     1       1.423  10.902   5.420  0.00  0.00    +0.000 C 
ENDBRANCH   8  12
BRANCH   8  14
ATOM     14  C   UNL     1       4.219  11.292   3.207  0.00  0.00    +0.000 C 
ATOM     15  C   UNL     1       5.646  11.149   2.702  0.00  0.00    +0.000 C 
ENDBRANCH   8  14
ENDBRANCH   7   9
ENDBRANCH   1   7
BRANCH   3  16
ATOM     16  C   UNL     1       7.012   5.276   1.908  0.00  0.00    +0.000 C 
BRANCH  16  17
ATOM     17  O   UNL     1       7.325   6.597   2.322  0.00  0.00    +0.000 OA
BRANCH  17  18
ATOM     18  C   UNL     1       8.083   7.446   1.473  0.00  0.00    +0.000 C 
ATOM     19  C   UNL     1       8.558   6.940   0.120  0.00  0.00    +0.000 C 
ATOM     20  O   UNL     1       8.364   8.629   1.843  0.00  0.00    +0.000 OA
ENDBRANCH  17  18
ENDBRANCH  16  17
ENDBRANCH   3  16
BRANCH   4  21
ATOM     21  O   UNL     1       5.950   6.551  -1.436  0.00  0.00    +0.000 OA
BRANCH  21  22
ATOM     22  C   UNL     1       4.531   6.551  -1.496  0.00  0.00    +0.000 C 
ATOM     23  C   UNL     1       3.716   6.569  -0.213  0.00  0.00    +0.000 C 
ATOM     24  O   UNL     1       3.943   6.535  -2.623  0.00  0.00    +0.000 OA
ENDBRANCH  21  22
ENDBRANCH   4  21
BRANCH   5  25
ATOM     25  O   UNL     1       6.990   7.903   1.765  0.00  0.00    +0.000 OA
BRANCH  25  26
ATOM     26  C   UNL     1       6.917   6.867   2.733  0.00  0.00    +0.000 C 
ATOM     27  C   UNL     1       5.998   5.678   2.506  0.00  0.00    +0.000 C 
ATOM     28  O   UNL     1       7.620   6.934   3.790  0.00  0.00    +0.000 OA
ENDBRANCH  25  26
ENDBRANCH   5  25
BRANCH   6  29
ATOM     29  O   UNL     1       3.926   7.859  -0.174  0.00  0.00    +0.000 OA
BRANCH  29  30
ATOM     30  C   UNL     1       2.695   8.565  -0.142  0.00  0.00    +0.000 C 
ATOM     31  C   UNL     1       2.243   9.250   1.138  0.00  0.00    +0.000 C 
ATOM     32  O   UNL     1       1.969   8.625  -1.184  0.00  0.00    +0.000 OA
ENDBRANCH  29  30
ENDBRANCH   6  29
TORSDOF 14
