REMARK  Name = 
REMARK  9 active torsions:
REMARK  status: ('A' for Active; 'I' for Inactive)
REMARK    1  A    between atoms: C_1  and  O_2
REMARK    2  A    between atoms: O_2  and  C_3
REMARK    3  A    between atoms: C_7  and  C_8
REMARK    4  A    between atoms: C_8  and  N_9
REMARK    5  A    between atoms: C_11  and  C_23
REMARK    6  A    between atoms: C_20  and  C_21
REMARK    7  A    between atoms: C_21  and  O_22
REMARK    8  A    between atoms: N_25  and  C_26
REMARK    9  A    between atoms: C_26  and  C_27
REMARK                            x       y       z     vdW  Elec       q    Type
REMARK                         _______ _______ _______ _____ _____    ______ ____
ROOT
ATOM      1  N   UNL     1       0.288  -0.083  -0.259  0.00  0.00    -0.324 N 
ATOM      2  C   UNL     1      -1.067   0.384  -0.358  0.00  0.00    +0.136 A 
ATOM      3  C   UNL     1      -1.365   1.692  -0.797  0.00  0.00    +0.094 A 
ATOM      4  C   UNL     1      -2.705   2.097  -0.784  0.00  0.00    +0.131 A 
ATOM      5  N   UNL     1      -3.678   1.236  -0.393  0.00  0.00    -0.222 NA
ATOM      6  C   UNL     1      -3.379  -0.029   0.003  0.00  0.00    +0.220 A 
ATOM      7  N   UNL     1      -2.084  -0.436   0.023  0.00  0.00    -0.199 NA
ATOM      8  N   UNL     1      -4.428  -0.931   0.395  0.00  0.00    -0.294 N 
ATOM      9  C   UNL     1      -5.814  -0.516   0.540  0.00  0.00    +0.108 C 
ATOM     10  C   UNL     1      -6.582  -1.771   0.933  0.00  0.00    +0.021 C 
ATOM     11  C   UNL     1      -5.532  -2.770   1.415  0.00  0.00    +0.026 C 
ATOM     12  C   UNL     1      -4.208  -2.319   0.786  0.00  0.00    +0.102 C 
ATOM     13  H   UNL     1       1.076   0.606  -0.272  0.00  0.00    +0.148 HD
ENDROOT
BRANCH   3  14
ATOM     14  C   UNL     1      -0.327   2.611  -1.309  0.00  0.00    +0.249 C 
ATOM     15  O   UNL     1       0.542   2.181  -2.117  0.00  0.00    -0.270 OA
ATOM     16  N   UNL     1      -0.309   3.987  -0.902  0.00  0.00    -0.304 N 
ATOM     17  H   UNL     1      -1.041   4.337  -0.243  0.00  0.00    +0.149 HD
BRANCH  16  18
ATOM     18  C   UNL     1       0.794   4.881  -1.244  0.00  0.00    +0.180 C 
BRANCH  18  19
ATOM     19  C   UNL     1       2.001   4.537  -0.428  0.00  0.00    +0.146 A 
ATOM     20  N   UNL     1       2.966   3.724  -0.942  0.00  0.00    -0.239 NA
ATOM     21  C   UNL     1       4.042   3.360  -0.195  0.00  0.00    +0.114 A 
ATOM     22  C   UNL     1       4.163   3.813   1.120  0.00  0.00    +0.039 A 
ATOM     23  C   UNL     1       3.161   4.634   1.635  0.00  0.00    +0.114 A 
ATOM     24  N   UNL     1       2.099   4.976   0.858  0.00  0.00    -0.239 NA
ENDBRANCH  18  19
ENDBRANCH  16  18
ENDBRANCH   3  14
BRANCH   1  25
ATOM     25  C   UNL     1       0.593  -1.499  -0.058  0.00  0.00    +0.138 C 
BRANCH  25  30
ATOM     26  C   UNL     1       4.867  -2.073  -0.361  0.00  0.00    +0.138 A 
ATOM     27  C   UNL     1       4.065  -2.079  -1.514  0.00  0.00    +0.083 A 
ATOM     28 CL   UNL     1       4.788  -2.292  -3.102  0.00  0.00    -0.080 Cl
ATOM     29  C   UNL     1       2.679  -1.907  -1.412  0.00  0.00    +0.028 A 
ATOM     30  C   UNL     1       2.076  -1.738  -0.156  0.00  0.00    -0.029 A 
ATOM     31  C   UNL     1       2.876  -1.712   0.995  0.00  0.00    +0.009 A 
ATOM     32  C   UNL     1       4.260  -1.885   0.897  0.00  0.00    +0.047 A 
BRANCH  26  34
ATOM     33  C   UNL     1       7.175  -2.280   0.585  0.00  0.00    +0.277 C 
ATOM     34  O   UNL     1       6.253  -2.252  -0.500  0.00  0.00    -0.494 OA
ENDBRANCH  26  34
ENDBRANCH  25  30
ENDBRANCH   1  25
BRANCH  12  35
ATOM     35  C   UNL     1      -3.813  -3.179  -0.432  0.00  0.00    +0.178 C 
BRANCH  35  36
ATOM     36  O   UNL     1      -4.713  -3.002  -1.496  0.00  0.00    -0.393 OA
ATOM     37  H   UNL     1      -5.463  -3.635  -1.347  0.00  0.00    +0.209 HD
ENDBRANCH  35  36
ENDBRANCH  12  35
TORSDOF 8
