REMARK  Name = 
REMARK  5 active torsions:
REMARK  status: ('A' for Active; 'I' for Inactive)
REMARK    1  A    between atoms: N_6  and  C1*_9
REMARK    2  A    between atoms: C4*_11  and  C5*_12
REMARK    3  A    between atoms: C5*_12  and  O5*_13
REMARK    4  A    between atoms: C3*_14  and  O3*_15
REMARK    5  A    between atoms: C2*_16  and  O2*_17
REMARK                            x       y       z     vdW  Elec       q    Type
REMARK                         _______ _______ _______ _____ _____    ______ ____
ROOT
ATOM      1  C1* UNL     1      -0.112   0.961  -0.363  0.00  0.00    +0.256 C 
ATOM      2  O4* UNL     1       0.660   0.334  -1.366  0.00  0.00    -0.346 OA
ATOM      3  C4* UNL     1       2.008   0.523  -1.006  0.00  0.00    +0.177 C 
ATOM      4  C3* UNL     1       2.085   0.516   0.515  0.00  0.00    +0.178 C 
ATOM      5  C2* UNL     1       0.735   1.090   0.917  0.00  0.00    +0.195 C 
ENDROOT
BRANCH   1  11
ATOM      6  N   UNL     1      -4.878  -1.872   0.657  0.00  0.00    -0.327 N 
ATOM      7  C   UNL     1      -3.667  -1.164   0.398  0.00  0.00    +0.218 A 
ATOM      8  N   UNL     1      -2.490  -1.831   0.334  0.00  0.00    -0.159 NA
ATOM      9  C   UNL     1      -1.334  -1.166   0.088  0.00  0.00    +0.355 A 
ATOM     10  O   UNL     1      -0.254  -1.815   0.050  0.00  0.00    -0.244 OA
ATOM     11  N   UNL     1      -1.348   0.192  -0.110  0.00  0.00    -0.253 N 
ATOM     12  C   UNL     1      -2.540   0.855  -0.024  0.00  0.00    +0.209 A 
ATOM     13  N   UNL     1      -3.689   0.178   0.223  0.00  0.00    -0.205 NA
ATOM     14  H   UNL     1      -4.866  -2.907   0.795  0.00  0.00    +0.145 HD
ATOM     15  H   UNL     1      -5.787  -1.362   0.710  0.00  0.00    +0.145 HD
ENDBRANCH   1  11
BRANCH   4  16
ATOM     16  O3* UNL     1       3.164   1.295   0.966  0.00  0.00    -0.386 OA
ATOM     17  H3* UNL     1       3.246   1.122   1.940  0.00  0.00    +0.210 HD
ENDBRANCH   4  16
BRANCH   5  18
ATOM     18  O2* UNL     1       0.820   2.429   1.346  0.00  0.00    -0.385 OA
ATOM     19  H2* UNL     1       1.224   2.964   0.613  0.00  0.00    +0.210 HD
ENDBRANCH   5  18
BRANCH   3  20
ATOM     20  C5* UNL     1       2.889  -0.554  -1.649  0.00  0.00    +0.190 C 
BRANCH  20  21
ATOM     21  O5* UNL     1       2.425  -1.834  -1.316  0.00  0.00    -0.392 OA
ATOM     22  H5* UNL     1       3.041  -2.474  -1.759  0.00  0.00    +0.210 HD
ENDBRANCH  20  21
ENDBRANCH   3  20
TORSDOF 5
