REMARK  Name = 
REMARK  4 active torsions:
REMARK  status: ('A' for Active; 'I' for Inactive)
REMARK    1  A    between atoms: C_1  and  N_2
REMARK    2  A    between atoms: C_5  and  N_17
REMARK    3  A    between atoms: C_6  and  S_7
REMARK    4  A    between atoms: S_7  and  C_8
REMARK                            x       y       z     vdW  Elec       q    Type
REMARK                         _______ _______ _______ _____ _____    ______ ____
ROOT
ATOM      1  S   UNL     1       0.177   0.622  -1.808  0.00  0.00    -0.046 S 
ENDROOT
BRANCH   1   2
ATOM      2  C   UNL     1      -0.928   0.912  -0.425  0.00  0.00    +0.132 A 
ATOM      3  N   UNL     1      -0.798   2.040   0.334  0.00  0.00    -0.227 NA
ATOM      4  C   UNL     1      -1.621   2.283   1.404  0.00  0.00    +0.224 A 
ATOM      5  N   UNL     1      -2.607   1.396   1.736  0.00  0.00    -0.214 NA
ATOM      6  C   UNL     1      -2.742   0.280   0.981  0.00  0.00    +0.182 A 
ATOM      7  C   UNL     1      -1.941   0.024  -0.079  0.00  0.00    +0.118 A 
ATOM      8  N   UNL     1      -2.325  -1.123  -0.652  0.00  0.00    -0.341 N 
ATOM      9  C   UNL     1      -3.369  -1.532   0.111  0.00  0.00    +0.199 A 
ATOM     10  N   UNL     1      -3.662  -0.686   1.137  0.00  0.00    -0.216 NA
ATOM     11  H   UNL     1      -1.937  -1.588  -1.500  0.00  0.00    +0.167 HD
ENDBRANCH   1   2
BRANCH   1  17
ATOM     12  C   UNL     1       2.486   1.942   0.144  0.00  0.00    +0.151 C 
ATOM     13  N   UNL     1       2.329   0.501  -0.020  0.00  0.00    -0.326 N 
ATOM     14  C   UNL     1       3.004  -0.451   0.656  0.00  0.00    +0.202 A 
ATOM     15  N   UNL     1       2.600  -1.701   0.341  0.00  0.00    -0.212 NA
ATOM     16  C   UNL     1       1.619  -1.509  -0.564  0.00  0.00    +0.247 A 
ATOM     17  C   UNL     1       1.430  -0.157  -0.777  0.00  0.00    +0.133 A 
BRANCH  16  18
ATOM     18  N   UNL     1       0.942  -2.583  -1.227  0.00  0.00    +0.078 N 
ATOM     19  O   UNL     1       0.312  -2.375  -2.431  0.00  0.00    -0.125 OA
ATOM     20  O   UNL     1       1.065  -3.748  -0.800  0.00  0.00    -0.125 OA
ENDBRANCH  16  18
ENDBRANCH   1  17
TORSDOF 3
