REMARK  Name = 
REMARK  1 active torsions:
REMARK  status: ('A' for Active; 'I' for Inactive)
REMARK    1  A    between atoms: C_1  and  N_2
REMARK                            x       y       z     vdW  Elec       q    Type
REMARK                         _______ _______ _______ _____ _____    ______ ____
ROOT
ATOM      1  C   UNL     1       5.192   0.498  -0.241  0.00  0.00    +0.104 C 
ATOM      2  N   UNL     1       3.764   0.408  -0.580  0.00  0.00    -0.305 NA
ATOM      3  C   UNL     1       3.216  -0.877  -0.105  0.00  0.00    +0.088 C 
ATOM      4  C   UNL     1       1.760  -1.032  -0.550  0.00  0.00    +0.047 C 
ATOM      5  C   UNL     1       0.936   0.158  -0.095  0.00  0.00    -0.057 C 
ATOM      6  C   UNL     1       1.558   1.511  -0.385  0.00  0.00    +0.047 C 
ATOM      7  C   UNL     1       3.030   1.530   0.037  0.00  0.00    +0.088 C 
ATOM      8  C   UNL     1      -0.370   0.035   0.276  0.00  0.00    +0.007 C 
ATOM      9  C   UNL     1      -1.027  -1.280   0.487  0.00  0.00    -0.013 A 
ATOM     10  C   UNL     1      -0.526  -2.098   1.518  0.00  0.00    +0.009 A 
ATOM     11  C   UNL     1      -1.100  -3.337   1.793  0.00  0.00    +0.001 A 
ATOM     12  C   UNL     1      -2.201  -3.770   1.062  0.00  0.00    +0.000 A 
ATOM     13  C   UNL     1      -2.744  -2.958   0.066  0.00  0.00    +0.004 A 
ATOM     14  C   UNL     1      -2.186  -1.701  -0.236  0.00  0.00    -0.039 A 
ATOM     15  C   UNL     1      -2.940  -0.888  -1.289  0.00  0.00    +0.040 C 
ATOM     16  C   UNL     1      -2.330   0.439  -1.759  0.00  0.00    +0.042 C 
ATOM     17  C   UNL     1      -2.218   1.415  -0.619  0.00  0.00    -0.021 A 
ATOM     18  C   UNL     1      -1.252   1.207   0.371  0.00  0.00    +0.075 A 
ATOM     19  N   UNL     1      -1.164   2.055   1.433  0.00  0.00    -0.255 NA
ATOM     20  C   UNL     1      -1.992   3.127   1.558  0.00  0.00    +0.111 A 
ATOM     21  C   UNL     1      -2.971   3.372   0.592  0.00  0.00    +0.020 A 
ATOM     22  C   UNL     1      -3.088   2.507  -0.499  0.00  0.00    +0.007 A 
ENDROOT
TORSDOF 0
