REMARK  Name = 
REMARK  4 active torsions:
REMARK  status: ('A' for Active; 'I' for Inactive)
REMARK    1  A    between atoms: C_1  and  N_2
REMARK    2  A    between atoms: C_6  and  N_9
REMARK    3  A    between atoms: C_11  and  C_12
REMARK    4  A    between atoms: C_12  and  C_13
REMARK                            x       y       z     vdW  Elec       q    Type
REMARK                         _______ _______ _______ _____ _____    ______ ____
ROOT
ATOM      1  N   UNL     1      -0.434  -0.100  -0.524  0.00  0.00    -0.226 N 
ATOM      2  N   UNL     1       0.676   0.607  -0.748  0.00  0.00    -0.172 NA
ATOM      3  C   UNL     1       1.886   0.042  -0.996  0.00  0.00    +0.074 A 
ATOM      4  C   UNL     1       1.992  -1.365  -1.014  0.00  0.00    +0.011 A 
ATOM      5  C   UNL     1       3.213  -2.031  -1.254  0.00  0.00    +0.010 A 
ATOM      6  C   UNL     1       3.270  -3.426  -1.264  0.00  0.00    +0.001 A 
ATOM      7  C   UNL     1       2.119  -4.178  -1.037  0.00  0.00    +0.001 A 
ATOM      8  C   UNL     1       0.902  -3.539  -0.796  0.00  0.00    +0.014 A 
ATOM      9  C   UNL     1       0.826  -2.131  -0.780  0.00  0.00    +0.050 A 
ATOM     10  C   UNL     1      -0.391  -1.472  -0.532  0.00  0.00    +0.275 A 
ATOM     11  O   UNL     1      -1.437  -2.144  -0.310  0.00  0.00    -0.266 OA
ENDROOT
BRANCH   1  17
ATOM     12  C   UNL     1      -6.258   1.438  -0.886  0.00  0.00    +0.104 C 
ATOM     13  N   UNL     1      -4.989   0.749  -0.592  0.00  0.00    -0.305 NA
ATOM     14  C   UNL     1      -4.729   0.792   0.861  0.00  0.00    +0.084 C 
ATOM     15  C   UNL     1      -3.632  -0.204   1.266  0.00  0.00    +0.017 C 
ATOM     16  C   UNL     1      -2.218   0.388   1.162  0.00  0.00    +0.028 C 
ATOM     17  C   UNL     1      -1.680   0.654  -0.274  0.00  0.00    +0.112 C 
ATOM     18  C   UNL     1      -2.674   0.448  -1.440  0.00  0.00    +0.042 C 
ATOM     19  C   UNL     1      -3.895   1.376  -1.361  0.00  0.00    +0.086 C 
ENDBRANCH   1  17
BRANCH   3  20
ATOM     20  C   UNL     1       3.062   0.968  -1.187  0.00  0.00    +0.093 C 
BRANCH  20  21
ATOM     21  C   UNL     1       3.891   1.062   0.069  0.00  0.00    -0.041 A 
ATOM     22  C   UNL     1       5.245   0.683   0.062  0.00  0.00    +0.005 A 
ATOM     23  C   UNL     1       6.010   0.777   1.229  0.00  0.00    +0.020 A 
ATOM     24  C   UNL     1       5.433   1.257   2.409  0.00  0.00    +0.041 A 
ATOM     25 CL   UNL     1       6.395   1.374   3.872  0.00  0.00    -0.084 Cl
ATOM     26  C   UNL     1       4.091   1.647   2.421  0.00  0.00    +0.020 A 
ATOM     27  C   UNL     1       3.323   1.555   1.256  0.00  0.00    +0.005 A 
ENDBRANCH  20  21
ENDBRANCH   3  20
TORSDOF 3
