REMARK  Name = 
REMARK  10 active torsions:
REMARK  status: ('A' for Active; 'I' for Inactive)
REMARK    1  A    between atoms: O_1  and  C_2
REMARK    2  A    between atoms: C_2  and  C_4
REMARK    3  A    between atoms: C_4  and  C_5
REMARK    4  A    between atoms: C_5  and  C_6
REMARK    5  A    between atoms: C_6  and  C_7
REMARK    6  A    between atoms: C_7  and  C_8
REMARK    7  A    between atoms: C_8  and  C_9
REMARK    8  A    between atoms: C_9  and  C_10
REMARK    9  A    between atoms: C_10  and  C_11
REMARK   10  A    between atoms: C_11  and  O_12
REMARK                            x       y       z     vdW  Elec       q    Type
REMARK                         _______ _______ _______ _____ _____    ______ ____
ROOT
ATOM      1  C   UNL     1       0.056  -0.329   0.755  0.00  0.00    +0.000 C 
ENDROOT
BRANCH   1   2
ATOM      2  C   UNL     1       1.345  -1.167   0.670  0.00  0.00    +0.001 C 
BRANCH   2   3
ATOM      3  C   UNL     1       2.311  -0.767  -0.460  0.00  0.00    +0.011 C 
BRANCH   3   4
ATOM      4  C   UNL     1       2.822   0.673  -0.330  0.00  0.00    +0.120 C 
BRANCH   4   5
ATOM      5  C   UNL     1       3.895   0.939  -1.337  0.00  0.00    +0.305 C 
ATOM      6  O   UNL     1       3.591   1.347  -2.490  0.00  0.00    -0.251 OA
BRANCH   5   7
ATOM      7  O   UNL     1       5.226   0.693  -1.014  0.00  0.00    -0.481 OA
ATOM      8  H   UNL     1       5.962   0.853  -1.691  0.00  0.00    +0.295 HD
ENDBRANCH   5   7
ENDBRANCH   4   5
ENDBRANCH   3   4
ENDBRANCH   2   3
ENDBRANCH   1   2
BRANCH   1   9
ATOM      9  C   UNL     1      -0.822  -0.450  -0.502  0.00  0.00    +0.001 C 
BRANCH   9  10
ATOM     10  C   UNL     1      -2.154   0.307  -0.366  0.00  0.00    +0.011 C 
BRANCH  10  11
ATOM     11  C   UNL     1      -3.161  -0.423   0.532  0.00  0.00    +0.120 C 
BRANCH  11  12
ATOM     12  C   UNL     1      -4.472   0.297   0.537  0.00  0.00    +0.305 C 
ATOM     13  O   UNL     1      -5.364  -0.009  -0.298  0.00  0.00    -0.251 OA
BRANCH  12  14
ATOM     14  O   UNL     1      -4.687   1.337   1.436  0.00  0.00    -0.481 OA
ATOM     15  H   UNL     1      -5.563   1.846   1.441  0.00  0.00    +0.295 HD
ENDBRANCH  12  14
ENDBRANCH  11  12
ENDBRANCH  10  11
ENDBRANCH   9  10
ENDBRANCH   1   9
TORSDOF 10
