REMARK  Name = 
REMARK  8 active torsions:
REMARK  status: ('A' for Active; 'I' for Inactive)
REMARK    1  A    between atoms: C_3  and  C_4
REMARK    2  A    between atoms: C_3  and  C_5
REMARK    3  A    between atoms: CA_6  and  C_24
REMARK    4  A    between atoms: CA_10  and  N_11
REMARK    5  A    between atoms: C_12  and  C_14
REMARK    6  A    between atoms: C_14  and  N_15
REMARK    7  A    between atoms: C_14  and  C_18
REMARK    8  A    between atoms: C_24  and  O_25
REMARK                            x       y       z     vdW  Elec       q    Type
REMARK                         _______ _______ _______ _____ _____    ______ ____
ROOT
ATOM      1  C   UNL     1      -1.377   1.642  -0.611  0.00  0.00    +0.165 C 
ATOM      2  S   UNL     1      -0.480   0.077  -0.895  0.00  0.00    -0.127 S 
ATOM      3  C   UNL     1      -2.011  -0.918  -0.582  0.00  0.00    +0.042 C 
ATOM      4  C   UNL     1      -1.606  -2.255   0.056  0.00  0.00    +0.025 C 
ATOM      5  C   UNL     1      -2.673  -1.181  -1.950  0.00  0.00    +0.025 C 
ATOM      6  CA  UNL     1      -2.914  -0.091   0.391  0.00  0.00    +0.201 C 
ATOM      7  N   UNL     1      -2.468   1.271   0.236  0.00  0.00    -0.271 N 
ATOM      8  C   UNL     1      -2.043   2.317   1.193  0.00  0.00    +0.240 C 
ATOM      9  O   UNL     1      -2.468   2.739   2.300  0.00  0.00    -0.273 OA
ATOM     10  CA  UNL     1      -0.847   2.598   0.337  0.00  0.00    +0.190 C 
ENDROOT
BRANCH  10  11
ATOM     11  N   UNL     1       0.394   2.173   0.990  0.00  0.00    -0.300 N 
ATOM     12  C   UNL     1       1.681   2.451   0.423  0.00  0.00    +0.246 C 
ATOM     13  O   UNL     1       1.774   3.178  -0.604  0.00  0.00    -0.273 OA
ATOM     14  H   UNL     1       0.345   1.577   1.849  0.00  0.00    +0.150 HD
BRANCH  12  15
ATOM     15  C   UNL     1       2.909   1.810   1.024  0.00  0.00    +0.258 C 
BRANCH  15  16
ATOM     16  C   UNL     1       3.014   0.352   0.621  0.00  0.00    -0.012 A 
ATOM     17  C   UNL     1       2.999  -0.031  -0.735  0.00  0.00    +0.006 A 
ATOM     18  C   UNL     1       3.070  -1.381  -1.091  0.00  0.00    +0.000 A 
ATOM     19  C   UNL     1       3.159  -2.362  -0.101  0.00  0.00    +0.000 A 
ATOM     20  C   UNL     1       3.184  -1.995   1.246  0.00  0.00    +0.000 A 
ATOM     21  C   UNL     1       3.114  -0.646   1.607  0.00  0.00    +0.006 A 
ENDBRANCH  15  16
BRANCH  15  22
ATOM     22  N   UNL     1       4.134   2.545   0.699  0.00  0.00    -0.093 NA
ATOM     23  N   UNL     1       4.567   2.635  -0.452  0.00  0.00    -0.166 NA
ATOM     24  N   UNL     1       5.002   2.727  -1.599  0.00  0.00    +0.068 NA
ENDBRANCH  15  22
ENDBRANCH  12  15
ENDBRANCH  10  11
BRANCH   6  25
ATOM     25  C   UNL     1      -4.394  -0.200   0.148  0.00  0.00    +0.327 C 
ATOM     26  OXT UNL     1      -5.046  -1.140   0.674  0.00  0.00    -0.249 OA
BRANCH  25  27
ATOM     27  O   UNL     1      -5.038   0.706  -0.691  0.00  0.00    -0.479 OA
ATOM     28  H   UNL     1      -6.031   0.628  -0.875  0.00  0.00    +0.295 HD
ENDBRANCH  25  27
ENDBRANCH   6  25
TORSDOF 6
