REMARK  Name = 
REMARK  12 active torsions:
REMARK  status: ('A' for Active; 'I' for Inactive)
REMARK    1  A    between atoms: C_1  and  C_2
REMARK    2  A    between atoms: C_2  and  O_3
REMARK    3  A    between atoms: O_3  and  C_4
REMARK    4  A    between atoms: N_8  and  C_9
REMARK    5  A    between atoms: C_9  and  C_10
REMARK    6  A    between atoms: C_13  and  C_16
REMARK    7  A    between atoms: C_21  and  C_22
REMARK    8  A    between atoms: C_28  and  C_32
REMARK    9  A    between atoms: C_32  and  O_34
REMARK   10  A    between atoms: O_34  and  C_35
REMARK   11  A    between atoms: C_35  and  C_36
REMARK   12  A    between atoms: C_37  and  C_38
REMARK                            x       y       z     vdW  Elec       q    Type
REMARK                         _______ _______ _______ _____ _____    ______ ____
ROOT
ATOM      1  C   UNL     1      -1.678   3.024  -0.661  0.00  0.00    +0.299 A 
ATOM      2  N   UNL     1      -2.509   2.942  -1.728  0.00  0.00    -0.195 NA
ATOM      3  C   UNL     1      -3.176   1.800  -1.496  0.00  0.00    +0.094 A 
ATOM      4  C   UNL     1      -2.756   1.200  -0.327  0.00  0.00    +0.086 A 
ATOM      5  N   UNL     1      -1.805   2.001   0.220  0.00  0.00    -0.289 N 
ATOM      6  C   UNL     1      -3.341  -0.023   0.110  0.00  0.00    +0.085 A 
ATOM      7  C   UNL     1      -4.383  -0.552  -0.689  0.00  0.00    +0.017 A 
ATOM      8  C   UNL     1      -4.792   0.081  -1.877  0.00  0.00    +0.003 A 
ATOM      9  C   UNL     1      -4.184   1.270  -2.292  0.00  0.00    +0.030 A 
ENDROOT
BRANCH   6  10
ATOM     10  C   UNL     1      -2.985  -0.771   1.337  0.00  0.00    +0.342 C 
ATOM     11  O   UNL     1      -1.778  -0.942   1.655  0.00  0.00    -0.245 OA
BRANCH  10  12
ATOM     12  O   UNL     1      -3.987  -1.440   2.047  0.00  0.00    -0.453 OA
BRANCH  12  13
ATOM     13  C   UNL     1      -3.742  -2.172   3.245  0.00  0.00    +0.310 C 
BRANCH  13  14
ATOM     14  C   UNL     1      -2.946  -3.415   2.968  0.00  0.00    +0.187 A 
ATOM     15  C   UNL     1      -3.234  -4.422   2.062  0.00  0.00    +0.151 A 
ATOM     16  C   UNL     1      -4.390  -4.497   1.121  0.00  0.00    +0.090 C 
ATOM     17  O   UNL     1      -2.285  -5.323   2.148  0.00  0.00    -0.396 OA
ATOM     18  C   UNL     1      -1.457  -4.888   3.070  0.00  0.00    +0.521 A 
ATOM     19  O   UNL     1      -0.418  -5.504   3.423  0.00  0.00    -0.202 OA
ATOM     20  O   UNL     1      -1.831  -3.738   3.584  0.00  0.00    -0.392 OA
ENDBRANCH  13  14
ENDBRANCH  12  13
ENDBRANCH  10  12
ENDBRANCH   6  10
BRANCH   1  21
ATOM     21  O   UNL     1      -0.769   4.071  -0.473  0.00  0.00    -0.464 OA
BRANCH  21  23
ATOM     22  C   UNL     1       0.398   4.509  -2.547  0.00  0.00    +0.048 C 
ATOM     23  C   UNL     1      -0.507   5.069  -1.456  0.00  0.00    +0.229 C 
ENDBRANCH  21  23
ENDBRANCH   1  21
BRANCH   5  24
ATOM     24  C   UNL     1      -0.971   1.855   1.418  0.00  0.00    +0.162 C 
BRANCH  24  25
ATOM     25  C   UNL     1       0.373   1.239   1.079  0.00  0.00    -0.028 A 
ATOM     26  C   UNL     1       1.525   1.655   1.772  0.00  0.00    +0.006 A 
ATOM     27  C   UNL     1       2.770   1.086   1.485  0.00  0.00    +0.009 A 
ATOM     28  C   UNL     1       2.886   0.085   0.506  0.00  0.00    -0.017 A 
ATOM     29  C   UNL     1       1.738  -0.340  -0.178  0.00  0.00    +0.009 A 
ATOM     30  C   UNL     1       0.493   0.229   0.104  0.00  0.00    +0.006 A 
BRANCH  28  31
ATOM     31  C   UNL     1       4.203  -0.537   0.221  0.00  0.00    -0.007 A 
ATOM     32  C   UNL     1       4.913  -1.118   1.288  0.00  0.00    +0.009 A 
ATOM     33  C   UNL     1       6.098  -1.819   1.056  0.00  0.00    +0.001 A 
ATOM     34  C   UNL     1       6.593  -1.948  -0.240  0.00  0.00    +0.001 A 
ATOM     35  C   UNL     1       5.911  -1.367  -1.311  0.00  0.00    +0.012 A 
ATOM     36  C   UNL     1       4.725  -0.642  -1.096  0.00  0.00    +0.028 A 
BRANCH  36  37
ATOM     37  C   UNL     1       4.087   0.016  -2.258  0.00  0.00    +0.183 A 
ATOM     38  N   UNL     1       4.028  -0.533  -3.493  0.00  0.00    -0.054 NA
ATOM     39  O   UNL     1       3.468   0.368  -4.245  0.00  0.00    -0.295 OA
ATOM     40  C   UNL     1       3.201   1.427  -3.522  0.00  0.00    +0.440 A 
ATOM     41  O   UNL     1       2.671   2.476  -3.974  0.00  0.00    -0.221 OA
ATOM     42  N   UNL     1       3.575   1.264  -2.242  0.00  0.00    -0.271 N 
ATOM     43  H   UNL     1       3.523   1.951  -1.455  0.00  0.00    +0.174 HD
ENDBRANCH  36  37
ENDBRANCH  28  31
ENDBRANCH  24  25
ENDBRANCH   5  24
TORSDOF 10
