REMARK  Name = 
REMARK  26 active torsions:
REMARK  status: ('A' for Active; 'I' for Inactive)
REMARK    1  A    between atoms: C_1  and  C_2
REMARK    2  A    between atoms: C_2  and  C_3
REMARK    3  A    between atoms: C_7  and  C_8
REMARK    4  A    between atoms: C_9  and  O_10
REMARK    5  A    between atoms: O_10  and  C_11
REMARK    6  A    between atoms: C_13  and  C_14
REMARK    7  A    between atoms: C_13  and  O_15
REMARK    8  A    between atoms: O_15  and  C_16
REMARK    9  A    between atoms: C_17  and  O_18
REMARK   10  A    between atoms: C_19  and  C_20
REMARK   11  A    between atoms: C_22  and  C_23
REMARK   12  A    between atoms: C_24  and  O_25
REMARK   13  A    between atoms: O_25  and  C_26
REMARK   14  A    between atoms: C_28  and  C_29
REMARK   15  A    between atoms: C_31  and  N_34
REMARK   16  A    between atoms: C_32  and  O_33
REMARK   17  A    between atoms: N_34  and  C_35
REMARK   18  A    between atoms: N_34  and  C_36
REMARK   19  A    between atoms: C_37  and  C_38
REMARK   20  A    between atoms: C_37  and  O_39
REMARK   21  A    between atoms: C_41  and  C_42
REMARK   22  A    between atoms: N_44  and  C_45
REMARK   23  A    between atoms: C_46  and  C_47
REMARK   24  A    between atoms: C_48  and  O_49
REMARK   25  A    between atoms: C_50  and  C_51
REMARK   26  A    between atoms: C_50  and  O_52
REMARK                            x       y       z     vdW  Elec       q    Type
REMARK                         _______ _______ _______ _____ _____    ______ ____
ROOT
ATOM      1  C   UNL     1      -1.727  -1.746   1.839  0.00  0.00    +0.210 C 
ATOM      2  O   UNL     1      -1.713  -0.818   0.714  0.00  0.00    -0.458 OA
ATOM      3  C   UNL     1      -2.675   0.154   0.458  0.00  0.00    +0.313 C 
ATOM      4  O   UNL     1      -3.687   0.223   1.195  0.00  0.00    -0.250 OA
ATOM      5  C   UNL     1      -2.607   1.117  -0.717  0.00  0.00    +0.124 C 
ATOM      6  C   UNL     1      -3.510   0.707  -1.887  0.00  0.00    +0.022 C 
ATOM      7  C   UNL     1      -1.264   1.830  -1.083  0.00  0.00    +0.140 C 
ATOM      8  C   UNL     1      -0.206   1.374  -2.180  0.00  0.00    +0.047 C 
ATOM      9  C   UNL     1      -0.503   1.910  -3.597  0.00  0.00    +0.013 C 
ATOM     10  C   UNL     1       0.711   0.067  -2.116  0.00  0.00    +0.158 C 
ATOM     11  C   UNL     1       0.606  -1.104  -3.216  0.00  0.00    +0.090 C 
ATOM     12  C   UNL     1       2.026  -1.707  -3.423  0.00  0.00    +0.044 C 
ATOM     13  C   UNL     1      -0.291  -2.323  -2.827  0.00  0.00    +0.041 C 
ATOM     14  C   UNL     1      -1.825  -2.178  -2.813  0.00  0.00    +0.003 C 
ATOM     15  C   UNL     1      -2.416  -1.728  -4.162  0.00  0.00    +0.009 C 
ATOM     16  C   UNL     1      -2.509  -3.527  -2.452  0.00  0.00    +0.087 C 
ATOM     17  N   UNL     1      -1.853  -4.191  -1.301  0.00  0.00    -0.300 NA
ATOM     18  C   UNL     1      -1.114  -5.404  -1.730  0.00  0.00    +0.105 C 
ATOM     19  C   UNL     1      -2.737  -4.478  -0.140  0.00  0.00    +0.085 C 
ATOM     20  C   UNL     1      -3.747  -5.617  -0.437  0.00  0.00    +0.027 C 
ATOM     21  C   UNL     1      -3.443  -3.172   0.426  0.00  0.00    +0.166 C 
ATOM     22  C   UNL     1      -3.006  -2.702   1.870  0.00  0.00    +0.127 C 
ATOM     23  C   UNL     1      -2.841  -3.902   2.852  0.00  0.00    +0.048 C 
ENDROOT
BRANCH   1  25
ATOM     24  C   UNL     1       0.167  -2.861   3.234  0.00  0.00    +0.007 C 
ATOM     25  C   UNL     1      -0.377  -2.500   1.843  0.00  0.00    +0.044 C 
ENDBRANCH   1  25
BRANCH  11  26
ATOM     26  O   UNL     1       0.213  -0.572  -4.457  0.00  0.00    -0.386 OA
ATOM     27  H   UNL     1       0.221  -1.289  -5.146  0.00  0.00    +0.210 HD
ENDBRANCH  11  26
BRANCH  21  28
ATOM     28  O   UNL     1      -4.853  -3.323   0.427  0.00  0.00    -0.387 OA
ATOM     29  H   UNL     1      -5.153  -3.240  -0.516  0.00  0.00    +0.210 HD
ENDBRANCH  21  28
BRANCH  22  30
ATOM     30  O   UNL     1      -4.060  -1.927   2.410  0.00  0.00    -0.383 OA
ATOM     31  H   UNL     1      -4.823  -2.523   2.631  0.00  0.00    +0.210 HD
ENDBRANCH  22  30
BRANCH   7  32
ATOM     32  O   UNL     1      -0.632   2.246   0.134  0.00  0.00    -0.347 OA
BRANCH  32  33
ATOM     33  C   UNL     1      -0.442   3.665   0.187  0.00  0.00    +0.254 C 
ATOM     34  C   UNL     1      -0.592   4.149   1.643  0.00  0.00    +0.098 C 
ATOM     35  C   UNL     1       0.093   5.540   1.874  0.00  0.00    +0.099 C 
ATOM     36  C   UNL     1      -0.823   6.375   2.798  0.00  0.00    +0.044 C 
ATOM     37  C   UNL     1       0.224   6.258   0.494  0.00  0.00    +0.175 C 
ATOM     38  C   UNL     1       1.053   5.373  -0.477  0.00  0.00    +0.149 C 
ATOM     39  C   UNL     1       0.786   5.720  -1.943  0.00  0.00    +0.041 C 
ATOM     40  O   UNL     1       0.859   3.974  -0.287  0.00  0.00    -0.346 OA
BRANCH  35  41
ATOM     41  O   UNL     1       1.387   5.248   2.429  0.00  0.00    -0.374 OA
ATOM     42  C   UNL     1       1.985   6.314   3.149  0.00  0.00    +0.194 C 
ENDBRANCH  35  41
BRANCH  37  43
ATOM     43  O   UNL     1       0.828   7.526   0.618  0.00  0.00    -0.386 OA
ATOM     44  H   UNL     1       0.433   8.098  -0.091  0.00  0.00    +0.210 HD
ENDBRANCH  37  43
ENDBRANCH  32  33
ENDBRANCH   7  32
BRANCH  10  45
ATOM     45  O   UNL     1       0.799  -0.438  -0.789  0.00  0.00    -0.342 OA
BRANCH  45  46
ATOM     46  C   UNL     1       2.151  -0.646  -0.359  0.00  0.00    +0.281 C 
ATOM     47  O   UNL     1       2.270  -1.993   0.057  0.00  0.00    -0.346 OA
ATOM     48  C   UNL     1       3.603  -2.307   0.441  0.00  0.00    +0.120 C 
ATOM     49  C   UNL     1       3.647  -3.774   0.848  0.00  0.00    +0.038 C 
ATOM     50  C   UNL     1       4.070  -1.431   1.621  0.00  0.00    +0.053 C 
ATOM     51  C   UNL     1       3.899   0.055   1.262  0.00  0.00    +0.092 C 
ATOM     52  C   UNL     1       2.446   0.296   0.825  0.00  0.00    +0.187 C 
BRANCH  51  53
ATOM     53  N   UNL     1       4.296   1.009   2.350  0.00  0.00    -0.303 NA
ATOM     54  C   UNL     1       5.748   1.230   2.365  0.00  0.00    +0.105 C 
ATOM     55  C   UNL     1       3.805   0.656   3.693  0.00  0.00    +0.105 C 
ENDBRANCH  51  53
BRANCH  52  56
ATOM     56  O   UNL     1       2.292   1.632   0.422  0.00  0.00    -0.385 OA
ATOM     57  H   UNL     1       2.166   2.154   1.246  0.00  0.00    +0.210 HD
ENDBRANCH  52  56
ENDBRANCH  45  46
ENDBRANCH  10  45
TORSDOF 12
