REMARK  Name = 
REMARK  12 active torsions:
REMARK  status: ('A' for Active; 'I' for Inactive)
REMARK    1  A    between atoms: C_1  and  C_2
REMARK    2  A    between atoms: C_3  and  N_4
REMARK    3  A    between atoms: C_5  and  C_7
REMARK    4  A    between atoms: C_7  and  C_16
REMARK    5  A    between atoms: N_8  and  O_9
REMARK    6  A    between atoms: O_9  and  C_10
REMARK    7  A    between atoms: C_10  and  C_11
REMARK    8  A    between atoms: C_10  and  C_12
REMARK    9  A    between atoms: C_10  and  C_13
REMARK   10  A    between atoms: C_13  and  O_15
REMARK   11  A    between atoms: C_19  and  N_20
REMARK   12  A    between atoms: N_24  and  S_25
REMARK                            x       y       z     vdW  Elec       q    Type
REMARK                         _______ _______ _______ _____ _____    ______ ____
ROOT
ATOM      1  C   UNL     1      -0.899   1.397  -0.992  0.00  0.00    +0.190 C 
ATOM      2  N   UNL     1      -1.373   0.844   0.085  0.00  0.00    -0.077 NA
ENDROOT
BRANCH   1   3
ATOM      3  C   UNL     1      -1.607   2.567  -1.555  0.00  0.00    +0.107 A 
ATOM      4  C   UNL     1      -1.085   3.390  -2.558  0.00  0.00    +0.078 A 
ATOM      5  S   UNL     1      -2.196   4.616  -2.862  0.00  0.00    -0.062 S 
ATOM      6  C   UNL     1      -3.294   4.039  -1.729  0.00  0.00    +0.140 A 
ATOM      7  N   UNL     1      -2.829   2.946  -1.088  0.00  0.00    -0.225 NA
BRANCH   6   8
ATOM      8  N   UNL     1      -4.512   4.695  -1.375  0.00  0.00    -0.397 NA
ATOM      9  H   UNL     1      -4.928   5.138  -2.226  0.00  0.00    +0.122 HD
ATOM     10  H   UNL     1      -5.185   3.998  -0.984  0.00  0.00    +0.122 HD
ATOM     11  H   UNL     1      -4.306   5.427  -0.660  0.00  0.00    +0.122 HD
ENDBRANCH   6   8
ENDBRANCH   1   3
BRANCH   1  13
ATOM     12  N   UNL     1       1.420   0.398  -0.884  0.00  0.00    -0.297 N 
ATOM     13  C   UNL     1       0.294   0.830  -1.660  0.00  0.00    +0.268 C 
ATOM     14  O   UNL     1       0.310   0.707  -2.915  0.00  0.00    -0.268 OA
ATOM     15  H   UNL     1       1.512   0.761   0.093  0.00  0.00    +0.150 HD
BRANCH  12  18
ATOM     16  C   UNL     1       4.757  -1.114  -0.964  0.00  0.00    +0.032 C 
ATOM     17  C   UNL     1       3.330  -1.046  -0.412  0.00  0.00    +0.129 C 
ATOM     18  C   UNL     1       2.343  -0.622  -1.387  0.00  0.00    +0.183 C 
ATOM     19  C   UNL     1       1.730  -1.986  -1.289  0.00  0.00    +0.259 C 
ATOM     20  O   UNL     1       0.750  -2.565  -1.826  0.00  0.00    -0.272 OA
ATOM     21  N   UNL     1       2.754  -2.369  -0.292  0.00  0.00    -0.143 N 
BRANCH  21  22
ATOM     22  S   UNL     1       3.099  -3.785   0.634  0.00  0.00    +0.199 S 
ATOM     23  O   UNL     1       4.166  -4.767  -0.212  0.00  0.00    -0.029 OA
ATOM     24  O   UNL     1       3.711  -3.386   1.947  0.00  0.00    -0.124 OA
ATOM     25  O   UNL     1       1.823  -4.534   0.895  0.00  0.00    -0.124 OA
ENDBRANCH  21  22
ENDBRANCH  12  18
ENDBRANCH   1  13
BRANCH   2  26
ATOM     26  O   UNL     1      -0.807  -0.289   0.634  0.00  0.00    -0.376 OA
BRANCH  26  27
ATOM     27  C   UNL     1      -1.318  -0.885   1.825  0.00  0.00    +0.228 C 
ATOM     28  C   UNL     1      -0.473  -2.127   2.129  0.00  0.00    +0.070 C 
ATOM     29  C   UNL     1      -2.784  -1.293   1.601  0.00  0.00    +0.070 C 
BRANCH  27  30
ATOM     30  C   UNL     1      -1.202   0.082   2.980  0.00  0.00    +0.351 C 
ATOM     31  O   UNL     1      -0.342   1.004   2.951  0.00  0.00    -0.246 OA
BRANCH  30  32
ATOM     32  O   UNL     1      -1.992  -0.085   4.115  0.00  0.00    -0.478 OA
ATOM     33  H   UNL     1      -1.892   0.530   4.915  0.00  0.00    +0.295 HD
ENDBRANCH  30  32
ENDBRANCH  27  30
ENDBRANCH  26  27
ENDBRANCH   2  26
TORSDOF 9
