REMARK  Name = 
REMARK  15 active torsions:
REMARK  status: ('A' for Active; 'I' for Inactive)
REMARK    1  A    between atoms: C_3  and  C_4
REMARK    2  A    between atoms: C_3  and  C_5
REMARK    3  A    between atoms: C_6  and  C_22
REMARK    4  A    between atoms: C_10  and  N_11
REMARK    5  A    between atoms: C_12  and  C_14
REMARK    6  A    between atoms: C_14  and  N_15
REMARK    7  A    between atoms: C_14  and  C_16
REMARK    8  A    between atoms: C_22  and  O_24
REMARK    9  A    between atoms: O_24  and  C_25
REMARK   10  A    between atoms: C_25  and  C_26
REMARK   11  A    between atoms: C_25  and  O_27
REMARK   12  A    between atoms: O_27  and  C_28
REMARK   13  A    between atoms: C_28  and  O_30
REMARK   14  A    between atoms: O_30  and  C_31
REMARK   15  A    between atoms: C_31  and  C_32
REMARK                            x       y       z     vdW  Elec       q    Type
REMARK                         _______ _______ _______ _____ _____    ______ ____
ROOT
ATOM      1  C   UNL     1      -0.675  -1.184   1.187  0.00  0.00    +0.165 C 
ATOM      2  S   UNL     1      -0.794  -1.946  -0.470  0.00  0.00    -0.127 S 
ATOM      3  C   UNL     1       0.571  -0.869  -1.113  0.00  0.00    +0.042 C 
ATOM      4  C   UNL     1       0.325  -0.596  -2.605  0.00  0.00    +0.025 C 
ATOM      5  C   UNL     1       1.890  -1.649  -0.945  0.00  0.00    +0.025 C 
ATOM      6  C   UNL     1       0.534   0.462  -0.295  0.00  0.00    +0.201 C 
ATOM      7  N   UNL     1      -0.146   0.120   0.929  0.00  0.00    -0.271 N 
ATOM      8  C   UNL     1      -1.304   0.701   1.647  0.00  0.00    +0.240 C 
ATOM      9  O   UNL     1      -1.686   1.867   1.927  0.00  0.00    -0.273 OA
ATOM     10  C   UNL     1      -1.873  -0.674   1.818  0.00  0.00    +0.190 C 
ENDROOT
BRANCH  10  11
ATOM     11  N   UNL     1      -3.095  -0.861   1.033  0.00  0.00    -0.300 N 
ATOM     12  C   UNL     1      -3.840  -2.087   1.083  0.00  0.00    +0.235 C 
ATOM     13  O   UNL     1      -3.462  -3.022   1.840  0.00  0.00    -0.274 OA
ATOM     14  H   UNL     1      -3.430  -0.087   0.415  0.00  0.00    +0.150 HD
BRANCH  12  15
ATOM     15  C   UNL     1      -5.056  -2.289   0.213  0.00  0.00    +0.168 C 
BRANCH  15  16
ATOM     16  C   UNL     1      -6.089  -1.207   0.465  0.00  0.00    -0.022 A 
ATOM     17  C   UNL     1      -6.144  -0.028  -0.307  0.00  0.00    +0.005 A 
ATOM     18  C   UNL     1      -7.085   0.965  -0.018  0.00  0.00    +0.000 A 
ATOM     19  C   UNL     1      -7.974   0.800   1.047  0.00  0.00    +0.000 A 
ATOM     20  C   UNL     1      -7.921  -0.356   1.828  0.00  0.00    +0.000 A 
ATOM     21  C   UNL     1      -6.981  -1.351   1.544  0.00  0.00    +0.005 A 
ENDBRANCH  15  16
BRANCH  15  22
ATOM     22  N   UNL     1      -4.686  -2.375  -1.204  0.00  0.00    -0.316 NA
ATOM     23  H   UNL     1      -4.005  -1.619  -1.446  0.00  0.00    +0.119 HD
ATOM     24  H   UNL     1      -4.187  -3.281  -1.358  0.00  0.00    +0.119 HD
ENDBRANCH  15  22
ENDBRANCH  12  15
ENDBRANCH  10  11
BRANCH   6  25
ATOM     25  C   UNL     1       1.877   1.080  -0.019  0.00  0.00    +0.332 C 
ATOM     26  O   UNL     1       2.480   0.841   1.064  0.00  0.00    -0.249 OA
BRANCH  25  27
ATOM     27  O   UNL     1       2.469   1.878  -1.002  0.00  0.00    -0.424 OA
BRANCH  27  28
ATOM     28  C   UNL     1       3.783   2.413  -0.876  0.00  0.00    +0.370 C 
ATOM     29  C   UNL     1       4.056   3.333  -2.062  0.00  0.00    +0.101 C 
BRANCH  28  30
ATOM     30  O   UNL     1       4.726   1.341  -0.857  0.00  0.00    -0.394 OA
BRANCH  30  31
ATOM     31  C   UNL     1       6.050   1.482  -0.430  0.00  0.00    +0.513 C 
ATOM     32  O   UNL     1       6.471   2.592  -0.001  0.00  0.00    -0.203 OA
BRANCH  31  33
ATOM     33  O   UNL     1       6.900   0.373  -0.487  0.00  0.00    -0.434 OA
BRANCH  33  34
ATOM     34  C   UNL     1       8.252   0.393  -0.032  0.00  0.00    +0.232 C 
ATOM     35  C   UNL     1       8.308   0.352   1.491  0.00  0.00    +0.048 C 
ENDBRANCH  33  34
ENDBRANCH  31  33
ENDBRANCH  30  31
ENDBRANCH  28  30
ENDBRANCH  27  28
ENDBRANCH  25  27
ENDBRANCH   6  25
TORSDOF 11
