REMARK  Name = 
REMARK  43 active torsions:
REMARK  status: ('A' for Active; 'I' for Inactive)
REMARK    1  A    between atoms: C_1  and  C_2
REMARK    2  A    between atoms: C_2  and  C_3
REMARK    3  A    between atoms: C_3  and  C_4
REMARK    4  A    between atoms: C_3  and  C_5
REMARK    5  A    between atoms: C_5  and  N_6
REMARK    6  A    between atoms: C_5  and  C_7
REMARK    7  A    between atoms: C_9  and  C_12
REMARK    8  A    between atoms: N_14  and  C_15
REMARK    9  A    between atoms: C_15  and  C_16
REMARK   10  A    between atoms: C_15  and  C_20
REMARK   11  A    between atoms: C_16  and  C_17
REMARK   12  A    between atoms: C_17  and  C_18
REMARK   13  A    between atoms: C_17  and  C_19
REMARK   14  A    between atoms: N_22  and  C_23
REMARK   15  A    between atoms: C_23  and  C_24
REMARK   16  A    between atoms: C_23  and  C_29
REMARK   17  A    between atoms: C_24  and  C_25
REMARK   18  A    between atoms: C_25  and  C_26
REMARK   19  A    between atoms: C_26  and  O_27
REMARK   20  A    between atoms: N_31  and  C_32
REMARK   21  A    between atoms: C_32  and  C_33
REMARK   22  A    between atoms: C_32  and  C_37
REMARK   23  A    between atoms: C_33  and  C_34
REMARK   24  A    between atoms: C_33  and  C_35
REMARK   25  A    between atoms: C_35  and  C_36
REMARK   26  A    between atoms: N_39  and  C_40
REMARK   27  A    between atoms: C_48  and  C_49
REMARK   28  A    between atoms: C_49  and  C_50
REMARK   29  A    between atoms: C_56  and  C_57
REMARK   30  A    between atoms: C_57  and  C_58
REMARK   31  A    between atoms: C_58  and  O_59
REMARK   32  A    between atoms: C_64  and  C_65
REMARK   33  A    between atoms: C_65  and  C_66
REMARK   34  A    between atoms: C_74  and  C_75
REMARK   35  A    between atoms: C_75  and  C_76
REMARK   36  A    between atoms: C_85  and  C_97
REMARK   37  A    between atoms: C_89  and  C_90
REMARK   38  A    between atoms: C_90  and  C_91
REMARK   39  A    between atoms: C_91  and  C_92
REMARK   40  A    between atoms: C_92  and  N_93
REMARK   41  A    between atoms: C_97  and  C_98
REMARK   42  A    between atoms: C_97  and  C_99
REMARK   43  A    between atoms: C_99  and  C_100
REMARK                            x       y       z     vdW  Elec       q    Type
REMARK                         _______ _______ _______ _____ _____    ______ ____
ROOT
ATOM      1  C   UNL     1      -6.808  12.468   6.217  0.00  0.00    +0.159 C 
ATOM      2  C   UNL     1      -5.967  13.114   9.909  0.00  0.00    +0.032 C 
ATOM      3  C   UNL     1      -5.188  13.971  13.105  0.00  0.00    +0.004 C 
ATOM      4  C   UNL     1      -4.000  14.662  15.943  0.00  0.00    +0.019 C 
ATOM      5  C   UNL     1      -3.503  13.700  17.725  0.00  0.00    +0.104 C 
ATOM      6  N   UNL     1      -5.208  13.337  16.994  0.00  0.00    -0.314 N 
ATOM      7  C   UNL     1      -5.186  12.988  15.563  0.00  0.00    +0.234 C 
ATOM      8  O   UNL     1      -3.733  12.984  15.094  0.00  0.00    -0.274 OA
ATOM      9  C   UNL     1      -6.542  13.198  15.283  0.00  0.00    +0.168 C 
ATOM     10  N   UNL     1      -6.754  14.195  14.260  0.00  0.00    -0.302 N 
ATOM     11  C   UNL     1      -7.054  13.707  12.925  0.00  0.00    +0.234 C 
ATOM     12  O   UNL     1      -7.116  12.472  12.680  0.00  0.00    -0.274 OA
ATOM     13  C   UNL     1      -7.097  14.724  11.770  0.00  0.00    +0.169 C 
ATOM     14  N   UNL     1      -6.161  14.623  10.723  0.00  0.00    -0.302 N 
ATOM     15  C   UNL     1      -6.732  14.253   9.213  0.00  0.00    +0.234 C 
ATOM     16  O   UNL     1      -7.872  14.034   9.098  0.00  0.00    -0.274 OA
ATOM     17  C   UNL     1      -5.600  13.752   8.214  0.00  0.00    +0.165 C 
ATOM     18  N   UNL     1      -5.823  12.392   7.825  0.00  0.00    -0.302 N 
ATOM     19  C   UNL     1      -5.434  12.145   6.601  0.00  0.00    +0.234 C 
ATOM     20  O   UNL     1      -5.984  13.357   5.471  0.00  0.00    -0.274 OA
ATOM     21  C   UNL     1      -6.392  10.655   5.830  0.00  0.00    +0.163 C 
ATOM     22  N   UNL     1      -7.833  10.645   5.283  0.00  0.00    -0.302 N 
ATOM     23  C   UNL     1      -8.028  10.230   3.894  0.00  0.00    +0.234 C 
ATOM     24  O   UNL     1      -7.037  10.006   3.142  0.00  0.00    -0.274 OA
ATOM     25  C   UNL     1      -9.443  10.195   3.335  0.00  0.00    +0.162 C 
ATOM     26  N   UNL     1      -9.720  11.154   2.342  0.00  0.00    -0.302 N 
ATOM     27  C   UNL     1      -9.866  10.612   0.897  0.00  0.00    +0.234 C 
ATOM     28  O   UNL     1      -9.695   9.352   0.752  0.00  0.00    -0.274 OA
ATOM     29  C   UNL     1     -10.361  11.747  -0.091  0.00  0.00    +0.159 C 
ATOM     30  N   UNL     1      -8.456  11.391   0.922  0.00  0.00    -0.302 N 
ATOM     31  C   UNL     1      -7.783  11.932   3.382  0.00  0.00    +0.234 C 
ATOM     32  O   UNL     1      -8.349  11.417   1.451  0.00  0.00    -0.274 OA
ATOM     33  H   UNL     1      -5.620  13.812  17.885  0.00  0.00    +0.149 HD
ATOM     34  H   UNL     1      -6.444  15.176  14.419  0.00  0.00    +0.150 HD
ATOM     35  H   UNL     1      -5.119  14.427  10.893  0.00  0.00    +0.150 HD
ATOM     36  H   UNL     1      -5.774  11.581   8.387  0.00  0.00    +0.150 HD
ATOM     37  H   UNL     1      -8.610  10.844   5.891  0.00  0.00    +0.150 HD
ATOM     38  H   UNL     1      -9.510  12.171   2.396  0.00  0.00    +0.150 HD
ATOM     39  H   UNL     1      -8.264  11.286  -1.013  0.00  0.00    +0.150 HD
ENDROOT
BRANCH   1  42
ATOM     40  C   UNL     1      -6.616  12.104   0.375  0.00  0.00    +0.234 C 
ATOM     41  O   UNL     1      -5.898  12.101  -1.538  0.00  0.00    -0.274 OA
ATOM     42  N   UNL     1      -6.751  12.086   3.173  0.00  0.00    -0.302 N 
ATOM     43  H   UNL     1      -6.847  11.385   1.240  0.00  0.00    +0.150 HD
BRANCH  40  44
ATOM     44  C   UNL     1      -7.470  12.894  -2.043  0.00  0.00    +0.162 C 
BRANCH  44  47
ATOM     45  C   UNL     1      -7.673  14.661  -4.942  0.00  0.00    +0.234 C 
ATOM     46  O   UNL     1      -8.116  15.234  -5.884  0.00  0.00    -0.274 OA
ATOM     47  N   UNL     1      -8.109  13.510  -4.126  0.00  0.00    -0.302 N 
ATOM     48  H   UNL     1      -8.620  12.945  -4.641  0.00  0.00    +0.150 HD
BRANCH  45  49
ATOM     49  C   UNL     1      -6.686  16.294  -4.132  0.00  0.00    +0.159 C 
BRANCH  49  52
ATOM     50  C   UNL     1      -5.126  15.033  -2.049  0.00  0.00    +0.234 C 
ATOM     51  O   UNL     1      -4.328  14.348  -1.657  0.00  0.00    -0.274 OA
ATOM     52  N   UNL     1      -5.251  15.388  -3.487  0.00  0.00    -0.302 N 
ATOM     53  H   UNL     1      -5.229  14.771  -4.155  0.00  0.00    +0.150 HD
BRANCH  50  54
ATOM     54  C   UNL     1      -5.836  15.886  -0.501  0.00  0.00    +0.159 C 
BRANCH  54  57
ATOM     55  C   UNL     1      -4.689  18.639  -0.331  0.00  0.00    +0.239 C 
ATOM     56  O   UNL     1      -4.665  19.752  -0.555  0.00  0.00    -0.273 OA
ATOM     57  N   UNL     1      -5.765  18.093  -1.212  0.00  0.00    -0.302 N 
ATOM     58  H   UNL     1      -5.996  18.057  -2.176  0.00  0.00    +0.150 HD
BRANCH  55  61
ATOM     59  C   UNL     1      -2.162  17.432   0.986  0.00  0.00    +0.087 C 
ATOM     60  N   UNL     1      -3.297  16.885   0.765  0.00  0.00    -0.266 NA
ATOM     61  C   UNL     1      -4.332  17.828   1.102  0.00  0.00    +0.202 C 
ATOM     62  C   UNL     1      -3.961  18.934   1.993  0.00  0.00    +0.112 C 
ATOM     63  S   UNL     1      -2.160  19.080   1.645  0.00  0.00    -0.106 S 
BRANCH  59  64
ATOM     64  C   UNL     1      -0.912  16.692   0.570  0.00  0.00    +0.109 C 
BRANCH  64  65
ATOM     65  N   UNL     1       0.280  17.445   0.970  0.00  0.00    -0.322 NA
ATOM     66  H   UNL     1       0.716  17.853   0.147  0.00  0.00    +0.119 HD
ATOM     67  H   UNL     1       0.939  16.822   1.431  0.00  0.00    +0.119 HD
ENDBRANCH  64  65
BRANCH  64  68
ATOM     68  C   UNL     1      -0.884  15.310   1.205  0.00  0.00    +0.009 C 
ATOM     69  C   UNL     1       0.258  14.577   0.536  0.00  0.00    +0.009 C 
BRANCH  68  71
ATOM     70  C   UNL     1       0.494  14.420   3.085  0.00  0.00    +0.004 C 
ATOM     71  C   UNL     1      -0.699  15.275   2.717  0.00  0.00    +0.002 C 
ENDBRANCH  68  71
ENDBRANCH  64  68
ENDBRANCH  59  64
ENDBRANCH  55  61
ENDBRANCH  54  57
BRANCH  54  72
ATOM     72  C   UNL     1      -7.975  15.626  -0.805  0.00  0.00    +0.034 C 
BRANCH  72  73
ATOM     73  C   UNL     1      -8.416  16.317  -1.693  0.00  0.00    -0.015 C 
ATOM     74  C   UNL     1      -7.433  15.062  -3.177  0.00  0.00    +0.007 C 
ATOM     75  C   UNL     1      -9.740  16.090  -2.147  0.00  0.00    +0.007 C 
ENDBRANCH  72  73
ENDBRANCH  54  72
ENDBRANCH  50  54
ENDBRANCH  49  52
BRANCH  49  76
ATOM     76  C   UNL     1      -7.574  16.640  -3.100  0.00  0.00    +0.043 C 
BRANCH  76  77
ATOM     77  C   UNL     1      -6.701  16.180  -1.791  0.00  0.00    +0.123 C 
BRANCH  77  78
ATOM     78  C   UNL     1      -5.533  16.711  -1.772  0.00  0.00    +0.305 C 
ATOM     79  O   UNL     1      -4.672  16.870  -2.429  0.00  0.00    -0.251 OA
BRANCH  78  80
ATOM     80  O   UNL     1      -5.614  17.305   0.052  0.00  0.00    -0.481 OA
ATOM     81  H   UNL     1      -6.164  17.794   0.542  0.00  0.00    +0.295 HD
ENDBRANCH  78  80
ENDBRANCH  77  78
ENDBRANCH  76  77
ENDBRANCH  49  76
ENDBRANCH  45  49
ENDBRANCH  44  47
BRANCH  44  82
ATOM     82  C   UNL     1      -8.883  12.865  -1.991  0.00  0.00    +0.015 C 
ATOM     83  C   UNL     1      -9.688  11.929  -2.544  0.00  0.00    +0.010 C 
BRANCH  82  84
ATOM     84  C   UNL     1      -8.390  12.804  -0.561  0.00  0.00    +0.002 C 
ATOM     85  C   UNL     1      -7.705  13.805   0.240  0.00  0.00    +0.004 C 
ENDBRANCH  82  84
ENDBRANCH  44  82
ENDBRANCH  40  44
ENDBRANCH   1  42
BRANCH  25  86
ATOM     86  C   UNL     1      -9.702   8.800   2.828  0.00  0.00    +0.015 C 
ATOM     87  C   UNL     1      -9.636   7.807   3.909  0.00  0.00    +0.010 C 
BRANCH  86  88
ATOM     88  C   UNL     1     -11.150   8.907   2.353  0.00  0.00    +0.002 C 
ATOM     89  C   UNL     1     -11.436   9.886   1.277  0.00  0.00    +0.004 C 
ENDBRANCH  86  88
ENDBRANCH  25  86
BRANCH  13  90
ATOM     90  C   UNL     1      -6.848  16.113  12.276  0.00  0.00    +0.152 C 
BRANCH  90  91
ATOM     91  C   UNL     1      -7.044  17.113  11.183  0.00  0.00    +0.307 C 
ATOM     92  O   UNL     1      -6.384  17.101  10.250  0.00  0.00    -0.251 OA
BRANCH  91  93
ATOM     93  O   UNL     1      -7.979  18.108  11.245  0.00  0.00    -0.481 OA
ATOM     94  H   UNL     1      -8.559  18.183  12.040  0.00  0.00    +0.295 HD
ENDBRANCH  91  93
ENDBRANCH  90  91
ENDBRANCH  13  90
BRANCH  17  95
ATOM     95  C   UNL     1      -5.767  14.758   7.119  0.00  0.00    +0.088 C 
BRANCH  95  96
ATOM     96  C   UNL     1      -5.518  16.127   7.615  0.00  0.00    +0.061 A 
ATOM     97  C   UNL     1      -5.426  16.440   8.878  0.00  0.00    +0.107 A 
ATOM     98  N   UNL     1      -5.186  17.834   8.975  0.00  0.00    -0.351 N 
ATOM     99  C   UNL     1      -5.101  18.241   7.705  0.00  0.00    +0.196 A 
ATOM    100  N   UNL     1      -5.264  17.250   6.858  0.00  0.00    -0.241 NA
ATOM    101  H   UNL     1      -5.131  18.386   9.848  0.00  0.00    +0.166 HD
ENDBRANCH  95  96
ENDBRANCH  17  95
BRANCH  21 102
ATOM    102  C   UNL     1      -6.272   9.740   6.948  0.00  0.00    +0.067 C 
BRANCH 102 103
ATOM    103  C   UNL     1      -6.522   8.370   6.436  0.00  0.00    -0.045 A 
ATOM    104  C   UNL     1      -7.508   8.121   5.548  0.00  0.00    +0.004 A 
ATOM    105  C   UNL     1      -7.854   6.770   5.352  0.00  0.00    +0.000 A 
ATOM    106  C   UNL     1      -7.087   5.754   5.686  0.00  0.00    +0.000 A 
ATOM    107  C   UNL     1      -6.071   6.045   6.538  0.00  0.00    +0.000 A 
ATOM    108  C   UNL     1      -5.764   7.340   6.880  0.00  0.00    +0.004 A 
ENDBRANCH 102 103
ENDBRANCH  21 102
BRANCH  29 109
ATOM    109  C   UNL     1     -10.141  13.337   0.339  0.00  0.00    +0.033 C 
BRANCH 109 110
ATOM    110  C   UNL     1     -10.144  14.134  -0.741  0.00  0.00    +0.017 C 
BRANCH 110 111
ATOM    111  C   UNL     1     -11.485  14.007  -1.416  0.00  0.00    +0.078 C 
BRANCH 111 112
ATOM    112  N   UNL     1     -12.428  14.309  -0.365  0.00  0.00    -0.330 NA
ATOM    113  H   UNL     1     -13.372  14.241  -0.730  0.00  0.00    +0.118 HD
ATOM    114  H   UNL     1     -12.317  13.640   0.400  0.00  0.00    +0.118 HD
ENDBRANCH 111 112
ENDBRANCH 110 111
ENDBRANCH 109 110
ENDBRANCH  29 109
BRANCH   9 115
ATOM    115  C   UNL     1      -6.668  11.796  14.846  0.00  0.00    +0.127 C 
BRANCH 115 116
ATOM    116  C   UNL     1      -6.562  10.777  15.972  0.00  0.00    +0.213 C 
ATOM    117  N   UNL     1      -7.762  10.124  16.416  0.00  0.00    -0.329 N 
ATOM    118  O   UNL     1      -5.459  10.535  16.495  0.00  0.00    -0.276 OA
ATOM    119  H   UNL     1      -7.718   9.433  17.178  0.00  0.00    +0.145 HD
ATOM    120  H   UNL     1      -8.673  10.315  15.993  0.00  0.00    +0.145 HD
ENDBRANCH 115 116
ENDBRANCH   9 115
TORSDOF 35
