REMARK  Name = 
REMARK  10 active torsions:
REMARK  status: ('A' for Active; 'I' for Inactive)
REMARK    1  A    between atoms: O_1  and  C_2
REMARK    2  A    between atoms: C_2  and  C_4
REMARK    3  A    between atoms: C_4  and  C_5
REMARK    4  A    between atoms: C_5  and  N_6
REMARK    5  A    between atoms: C_7  and  C_9
REMARK    6  A    between atoms: C_12  and  N_15
REMARK    7  A    between atoms: N_16  and  C_17
REMARK    8  A    between atoms: C_20  and  O_21
REMARK    9  A    between atoms: C_22  and  C_24
REMARK   10  A    between atoms: C_24  and  O_25
REMARK                            x       y       z     vdW  Elec       q    Type
REMARK                         _______ _______ _______ _____ _____    ______ ____
ROOT
ATOM      1  C   UNL     1       2.225  -1.358   0.718  0.00  0.00    +0.037 A 
ATOM      2  C   UNL     1       1.637  -0.285   0.024  0.00  0.00    +0.015 A 
ATOM      3  C   UNL     1       0.249  -0.222  -0.142  0.00  0.00    +0.030 A 
ATOM      4  C   UNL     1      -0.573  -1.236   0.377  0.00  0.00    +0.086 A 
ATOM      5  C   UNL     1       0.010  -2.310   1.057  0.00  0.00    +0.030 A 
ATOM      6  C   UNL     1       1.396  -2.375   1.223  0.00  0.00    +0.015 A 
ENDROOT
BRANCH   1   8
ATOM      7  N   UNL     1       4.515  -0.263   0.885  0.00  0.00    -0.311 N 
ATOM      8  C   UNL     1       3.695  -1.442   0.897  0.00  0.00    +0.244 C 
ATOM      9  O   UNL     1       4.231  -2.570   1.079  0.00  0.00    -0.270 OA
ATOM     10  H   UNL     1       4.062   0.678   0.910  0.00  0.00    +0.149 HD
BRANCH   7  11
ATOM     11  C   UNL     1       5.975  -0.356   0.901  0.00  0.00    +0.115 C 
BRANCH  11  12
ATOM     12  C   UNL     1       6.612   1.036   0.888  0.00  0.00    +0.139 C 
BRANCH  12  13
ATOM     13  C   UNL     1       8.104   0.931   0.893  0.00  0.00    +0.306 C 
ATOM     14  O   UNL     1       8.731   0.899   1.986  0.00  0.00    -0.251 OA
BRANCH  13  15
ATOM     15  O   UNL     1       8.795   0.824  -0.309  0.00  0.00    -0.481 OA
ATOM     16  H   UNL     1       9.804   0.735  -0.322  0.00  0.00    +0.295 HD
ENDBRANCH  13  15
ENDBRANCH  12  13
ENDBRANCH  11  12
ENDBRANCH   7  11
ENDBRANCH   1   8
BRANCH   4  17
ATOM     17  N   UNL     1      -1.997  -1.202   0.225  0.00  0.00    -0.149 NA
ATOM     18  N   UNL     1      -2.591  -0.255  -0.383  0.00  0.00    -0.149 NA
BRANCH  18  19
ATOM     19  C   UNL     1      -4.015  -0.220  -0.536  0.00  0.00    +0.087 A 
ATOM     20  C   UNL     1      -4.836  -1.235  -0.021  0.00  0.00    +0.033 A 
ATOM     21  C   UNL     1      -6.219  -1.171  -0.188  0.00  0.00    +0.048 A 
ATOM     22  C   UNL     1      -6.806  -0.095  -0.869  0.00  0.00    +0.131 A 
ATOM     23  C   UNL     1      -5.992   0.935  -1.394  0.00  0.00    +0.102 A 
ATOM     24  C   UNL     1      -4.597   0.855  -1.217  0.00  0.00    +0.048 A 
BRANCH  22  25
ATOM     25  O   UNL     1      -8.192  -0.058  -1.020  0.00  0.00    -0.506 OA
ATOM     26  H   UNL     1      -8.788  -0.789  -0.650  0.00  0.00    +0.292 HD
ENDBRANCH  22  25
BRANCH  23  27
ATOM     27  C   UNL     1      -6.573   2.093  -2.123  0.00  0.00    +0.340 C 
ATOM     28  O   UNL     1      -5.821   2.997  -2.579  0.00  0.00    -0.245 OA
BRANCH  27  29
ATOM     29  O   UNL     1      -7.947   2.202  -2.315  0.00  0.00    -0.477 OA
ATOM     30  H   UNL     1      -8.343   2.992  -2.811  0.00  0.00    +0.295 HD
ENDBRANCH  27  29
ENDBRANCH  23  27
ENDBRANCH  18  19
ENDBRANCH   4  17
TORSDOF 10
