REMARK  Name = 
REMARK  16 active torsions:
REMARK  status: ('A' for Active; 'I' for Inactive)
REMARK    1  A    between atoms: C_1  and  N_2
REMARK    2  A    between atoms: N_2  and  C_3
REMARK    3  A    between atoms: C_4  and  O_6
REMARK    4  A    between atoms: O_6  and  C_7
REMARK    5  A    between atoms: C_9  and  C_19
REMARK    6  A    between atoms: C_11  and  O_12
REMARK    7  A    between atoms: O_12  and  C_13
REMARK    8  A    between atoms: N_15  and  C_16
REMARK    9  A    between atoms: N_15  and  C_17
REMARK   10  A    between atoms: C_19  and  O_20
REMARK   11  A    between atoms: C_19  and  C_21
REMARK   12  A    between atoms: C_21  and  N_22
REMARK   13  A    between atoms: N_22  and  C_23
REMARK   14  A    between atoms: C_23  and  C_24
REMARK   15  A    between atoms: C_23  and  C_25
REMARK   16  A    between atoms: C_23  and  C_26
REMARK                            x       y       z     vdW  Elec       q    Type
REMARK                         _______ _______ _______ _____ _____    ______ ____
ROOT
ATOM      1  C   UNL     1      -2.317  -0.555  -0.566  0.00  0.00    +0.137 A 
ATOM      2  C   UNL     1      -0.970  -0.958  -0.578  0.00  0.00    +0.053 A 
ATOM      3  C   UNL     1       0.056  -0.020  -0.384  0.00  0.00    -0.011 A 
ATOM      4  C   UNL     1      -0.277   1.323  -0.135  0.00  0.00    +0.053 A 
ATOM      5  C   UNL     1      -1.622   1.726  -0.078  0.00  0.00    +0.137 A 
ATOM      6  C   UNL     1      -2.630   0.783  -0.308  0.00  0.00    +0.092 A 
ENDROOT
BRANCH   1   7
ATOM      7  O   UNL     1      -3.371  -1.459  -0.764  0.00  0.00    -0.411 OA
BRANCH   7  11
ATOM      8  C   UNL     1      -5.447  -3.389  -0.486  0.00  0.00    +0.135 C 
ATOM      9  N   UNL     1      -4.337  -3.621  -1.412  0.00  0.00    -0.273 N 
ATOM     10  C   UNL     1      -4.264  -4.852  -2.205  0.00  0.00    +0.135 C 
ATOM     11  C   UNL     1      -3.307  -2.626  -1.539  0.00  0.00    +0.408 C 
ATOM     12  O   UNL     1      -2.377  -2.787  -2.378  0.00  0.00    -0.226 OA
ENDBRANCH   7  11
ENDBRANCH   1   7
BRANCH   5  13
ATOM     13  O   UNL     1      -1.996   3.056   0.161  0.00  0.00    -0.411 OA
BRANCH  13  14
ATOM     14  C   UNL     1      -1.263   3.983   0.916  0.00  0.00    +0.408 C 
ATOM     15  O   UNL     1      -0.371   3.592   1.718  0.00  0.00    -0.226 OA
ATOM     16  N   UNL     1      -1.568   5.385   0.810  0.00  0.00    -0.273 N 
ATOM     17  C   UNL     1      -0.824   6.357   1.614  0.00  0.00    +0.135 C 
ATOM     18  C   UNL     1      -2.618   5.821  -0.114  0.00  0.00    +0.135 C 
ENDBRANCH  13  14
ENDBRANCH   5  13
BRANCH   3  19
ATOM     19  C   UNL     1       1.508  -0.458  -0.401  0.00  0.00    +0.158 C 
BRANCH  19  20
ATOM     20  O   UNL     1       2.242   0.408  -1.228  0.00  0.00    -0.386 OA
ATOM     21  H   UNL     1       1.985   0.197  -2.163  0.00  0.00    +0.210 HD
ENDBRANCH  19  20
BRANCH  19  22
ATOM     22  C   UNL     1       2.100  -0.439   1.025  0.00  0.00    +0.117 C 
BRANCH  22  23
ATOM     23  N   UNL     1       3.007  -1.577   1.287  0.00  0.00    -0.309 NA
ATOM     24  H   UNL     1       3.049  -1.677   2.330  0.00  0.00    +0.123 HD
BRANCH  23  25
ATOM     25  C   UNL     1       4.399  -1.517   0.754  0.00  0.00    +0.011 C 
ATOM     26  C   UNL     1       5.034  -0.111   0.862  0.00  0.00    +0.027 C 
ATOM     27  C   UNL     1       5.275  -2.495   1.574  0.00  0.00    +0.027 C 
ATOM     28  C   UNL     1       4.430  -1.999  -0.710  0.00  0.00    +0.027 C 
ENDBRANCH  23  25
ENDBRANCH  22  23
ENDBRANCH  19  22
ENDBRANCH   3  19
TORSDOF 9
