REMARK  Name = 
REMARK  14 active torsions:
REMARK  status: ('A' for Active; 'I' for Inactive)
REMARK    1  A    between atoms: C_3  and  C_4
REMARK    2  A    between atoms: C_5  and  O_6
REMARK    3  A    between atoms: C_5  and  C_11
REMARK    4  A    between atoms: O_6  and  C_7
REMARK    5  A    between atoms: C_7  and  C_9
REMARK    6  A    between atoms: C_9  and  C_10
REMARK    7  A    between atoms: C_11  and  C_13
REMARK    8  A    between atoms: C_13  and  O_14
REMARK    9  A    between atoms: O_14  and  C_15
REMARK   10  A    between atoms: C_15  and  C_17
REMARK   11  A    between atoms: C_17  and  C_18
REMARK   12  A    between atoms: C_19  and  C_20
REMARK   13  A    between atoms: C_22  and  O_23
REMARK   14  A    between atoms: C_35  and  C_36
REMARK                            x       y       z     vdW  Elec       q    Type
REMARK                         _______ _______ _______ _____ _____    ______ ____
ROOT
ATOM      1  C   UNL     1      -0.873  -1.058   0.678  0.00  0.00    +0.005 C 
ATOM      2  C   UNL     1      -0.735  -2.085   1.785  0.00  0.00    +0.012 C 
ATOM      3  C   UNL     1       0.714  -1.887   2.282  0.00  0.00    +0.038 C 
ATOM      4  C   UNL     1       0.812  -2.199   3.784  0.00  0.00    +0.012 C 
ATOM      5  C   UNL     1       1.195  -0.465   1.740  0.00  0.00    +0.182 C 
ATOM      6  C   UNL     1      -0.150   0.183   1.230  0.00  0.00    +0.021 C 
ATOM      7  C   UNL     1      -0.898   0.844   2.443  0.00  0.00    +0.016 C 
ATOM      8  C   UNL     1      -0.006   1.206   0.058  0.00  0.00    +0.044 C 
ATOM      9  C   UNL     1      -1.339   1.530  -0.679  0.00  0.00    +0.137 C 
ATOM     10  C   UNL     1      -2.155   0.248  -1.118  0.00  0.00    +0.086 C 
ATOM     11 CL   UNL     1      -1.151  -0.516  -2.433  0.00  0.00    -0.114 Cl
ATOM     12  C   UNL     1      -2.279  -0.777   0.078  0.00  0.00    +0.018 C 
ATOM     13  C   UNL     1      -2.958  -2.094  -0.373  0.00  0.00    +0.010 C 
ATOM     14  C   UNL     1      -4.321  -1.845  -1.021  0.00  0.00    +0.032 C 
ATOM     15  C   UNL     1      -4.209  -0.814  -2.118  0.00  0.00    -0.055 C 
ATOM     16  C   UNL     1      -4.684  -1.096  -3.343  0.00  0.00    +0.051 C 
ATOM     17  C   UNL     1      -4.565  -0.131  -4.436  0.00  0.00    +0.179 C 
ATOM     18  O   UNL     1      -5.043  -0.396  -5.570  0.00  0.00    -0.288 OA
ATOM     19  C   UNL     1      -3.884   1.141  -4.206  0.00  0.00    +0.047 C 
ATOM     20  C   UNL     1      -3.409   1.447  -2.998  0.00  0.00    -0.011 C 
ATOM     21  C   UNL     1      -3.577   0.546  -1.771  0.00  0.00    +0.029 C 
ATOM     22  C   UNL     1      -4.585   1.280  -0.848  0.00  0.00    +0.022 C 
ENDROOT
BRANCH   5  23
ATOM     23  C   UNL     1       1.969   0.467   2.707  0.00  0.00    +0.214 C 
ATOM     24  O   UNL     1       2.157   0.152   3.870  0.00  0.00    -0.289 OA
BRANCH  23  25
ATOM     25  C   UNL     1       2.493   1.814   2.272  0.00  0.00    +0.310 C 
BRANCH  25  26
ATOM     26  O   UNL     1       3.055   1.741   0.968  0.00  0.00    -0.457 OA
BRANCH  26  27
ATOM     27  C   UNL     1       3.532   2.860   0.282  0.00  0.00    +0.307 C 
ATOM     28  O   UNL     1       3.467   4.011   0.797  0.00  0.00    -0.251 OA
BRANCH  27  29
ATOM     29  C   UNL     1       4.169   2.677  -1.058  0.00  0.00    +0.117 C 
ATOM     30  C   UNL     1       5.648   2.342  -0.900  0.00  0.00    +0.015 C 
ENDBRANCH  27  29
ENDBRANCH  26  27
ENDBRANCH  25  26
ENDBRANCH  23  25
ENDBRANCH   5  23
BRANCH   9  31
ATOM     31  O   UNL     1      -2.082   2.472   0.049  0.00  0.00    -0.390 OA
ATOM     32  H   UNL     1      -2.588   1.998   0.750  0.00  0.00    +0.210 HD
ENDBRANCH   9  31
BRANCH   5  33
ATOM     33  O   UNL     1       2.035  -0.712   0.598  0.00  0.00    -0.449 OA
BRANCH  33  34
ATOM     34  C   UNL     1       3.303  -1.309   0.637  0.00  0.00    +0.308 C 
ATOM     35  O   UNL     1       3.856  -1.575   1.740  0.00  0.00    -0.251 OA
BRANCH  34  36
ATOM     36  C   UNL     1       4.011  -1.573  -0.659  0.00  0.00    +0.117 C 
ATOM     37  C   UNL     1       5.082  -2.657  -0.534  0.00  0.00    +0.015 C 
ENDBRANCH  34  36
ENDBRANCH  33  34
ENDBRANCH   5  33
TORSDOF 9
