REMARK  Name = 
REMARK  12 active torsions:
REMARK  status: ('A' for Active; 'I' for Inactive)
REMARK    1  A    between atoms: C_1  and  O_2
REMARK    2  A    between atoms: O_2  and  C_3
REMARK    3  A    between atoms: C_13  and  C_14
REMARK    4  A    between atoms: C_14  and  C_15
REMARK    5  A    between atoms: C_14  and  C_21
REMARK    6  A    between atoms: C_21  and  O_22
REMARK    7  A    between atoms: C_21  and  C_23
REMARK    8  A    between atoms: C_21  and  C_28
REMARK    9  A    between atoms: C_23  and  C_24
REMARK   10  A    between atoms: C_24  and  N_25
REMARK   11  A    between atoms: N_25  and  C_26
REMARK   12  A    between atoms: N_25  and  C_27
REMARK                            x       y       z     vdW  Elec       q    Type
REMARK                         _______ _______ _______ _____ _____    ______ ____
ROOT
ATOM      1  C   UNL     1       3.196   0.490   1.600  0.00  0.00    +0.090 C 
ENDROOT
BRANCH   1  12
ATOM      2  C   UNL     1       0.795   0.943   2.504  0.00  0.00    +0.219 A 
ATOM      3  N   UNL     1      -0.060   1.440   3.363  0.00  0.00    -0.213 NA
ATOM      4  C   UNL     1       0.279   1.291   4.582  0.00  0.00    +0.075 A 
ATOM      5  C   UNL     1       1.572   0.890   4.978  0.00  0.00    +0.002 A 
ATOM      6  C   UNL     1       1.776   0.612   6.305  0.00  0.00    +0.025 A 
ATOM      7  C   UNL     1       0.698   0.758   7.176  0.00  0.00    +0.019 A 
ATOM      8 BR   UNL     1       0.937   0.310   8.985  0.00  0.00    -0.050 Br
ATOM      9  C   UNL     1      -0.555   1.214   6.750  0.00  0.00    +0.017 A 
ATOM     10  C   UNL     1      -0.769   1.474   5.422  0.00  0.00    +0.029 A 
ATOM     11  C   UNL     1       2.579   0.736   4.027  0.00  0.00    +0.019 A 
ATOM     12  C   UNL     1       2.175   0.723   2.715  0.00  0.00    +0.025 A 
BRANCH   2  14
ATOM     13  C   UNL     1       0.387  -0.095   0.427  0.00  0.00    +0.279 C 
ATOM     14  O   UNL     1      -0.025   0.528   1.557  0.00  0.00    -0.479 OA
ENDBRANCH   2  14
ENDBRANCH   1  12
BRANCH   1  15
ATOM     15  C   UNL     1       3.265  -0.974   0.942  0.00  0.00    -0.037 A 
ATOM     16  C   UNL     1       4.078  -1.982   0.537  0.00  0.00    +0.004 A 
ATOM     17  C   UNL     1       3.597  -2.996  -0.476  0.00  0.00    +0.000 A 
ATOM     18  C   UNL     1       2.341  -3.025  -1.059  0.00  0.00    +0.000 A 
ATOM     19  C   UNL     1       1.592  -2.099  -0.504  0.00  0.00    +0.000 A 
ATOM     20  C   UNL     1       2.081  -1.554   0.740  0.00  0.00    +0.004 A 
ENDBRANCH   1  15
BRANCH   1  21
ATOM     21  C   UNL     1       2.702   1.842   0.636  0.00  0.00    +0.104 C 
BRANCH  21  22
ATOM     22  C   UNL     1       0.917   2.411   0.217  0.00  0.00    -0.007 A 
ATOM     23  C   UNL     1       1.135   3.651  -0.257  0.00  0.00    +0.007 A 
ATOM     24  C   UNL     1       0.049   4.106  -0.911  0.00  0.00    +0.001 A 
ATOM     25  C   UNL     1      -0.854   3.194  -1.552  0.00  0.00    +0.008 A 
ATOM     26  C   UNL     1      -0.734   1.819  -1.413  0.00  0.00    -0.018 A 
ATOM     27  C   UNL     1      -0.808   1.735  -0.133  0.00  0.00    -0.012 A 
ATOM     28  C   UNL     1      -2.304   0.795  -0.168  0.00  0.00    +0.009 A 
ATOM     29  C   UNL     1      -2.860  -0.125  -1.245  0.00  0.00    +0.001 A 
ATOM     30  C   UNL     1      -2.419   0.431  -2.400  0.00  0.00    +0.001 A 
ATOM     31  C   UNL     1      -1.104   0.535  -2.166  0.00  0.00    +0.008 A 
ENDBRANCH  21  22
BRANCH  21  32
ATOM     32  O   UNL     1       3.317   3.024   1.377  0.00  0.00    -0.383 OA
ATOM     33  H   UNL     1       2.888   3.164   2.236  0.00  0.00    +0.211 HD
ENDBRANCH  21  32
BRANCH  21  34
ATOM     34  C   UNL     1       4.105   1.775  -0.512  0.00  0.00    +0.056 C 
BRANCH  34  35
ATOM     35  C   UNL     1       4.135   0.661  -1.617  0.00  0.00    +0.087 C 
BRANCH  35  36
ATOM     36  N   UNL     1       3.165   0.874  -2.706  0.00  0.00    -0.308 NA
ATOM     37  C   UNL     1       2.653  -0.359  -3.302  0.00  0.00    +0.104 C 
ATOM     38  C   UNL     1       1.982   1.318  -2.089  0.00  0.00    +0.104 C 
ENDBRANCH  35  36
ENDBRANCH  34  35
ENDBRANCH  21  34
ENDBRANCH   1  21
TORSDOF 9
