REMARK  Name = 
REMARK  12 active torsions:
REMARK  status: ('A' for Active; 'I' for Inactive)
REMARK    1  A    between atoms: C_1  and  C_2
REMARK    2  A    between atoms: C_2  and  O_3
REMARK    3  A    between atoms: O_3  and  C_4
REMARK    4  A    between atoms: C_4  and  C_6
REMARK    5  A    between atoms: C_6  and  C_7
REMARK    6  A    between atoms: C_6  and  N_15
REMARK    7  A    between atoms: C_7  and  C_8
REMARK    8  A    between atoms: C_8  and  C_9
REMARK    9  A    between atoms: N_15  and  C_16
REMARK   10  A    between atoms: N_25  and  C_26
REMARK   11  A    between atoms: C_26  and  C_27
REMARK   12  A    between atoms: C_27  and  O_28
REMARK                            x       y       z     vdW  Elec       q    Type
REMARK                         _______ _______ _______ _____ _____    ______ ____
ROOT
ATOM      1  C   UNL     1      -0.996   1.059  -0.196  0.00  0.00    +0.142 C 
ATOM      2  C   UNL     1      -1.770   0.898  -1.517  0.00  0.00    +0.033 C 
ATOM      3  C   UNL     1      -3.146   1.581  -1.456  0.00  0.00    +0.039 C 
ATOM      4  C   UNL     1      -4.249   0.703  -0.890  0.00  0.00    -0.026 A 
ATOM      5  C   UNL     1      -5.542   0.884  -1.423  0.00  0.00    +0.005 A 
ATOM      6  C   UNL     1      -6.624   0.143  -0.953  0.00  0.00    +0.000 A 
ATOM      7  C   UNL     1      -6.441  -0.789   0.064  0.00  0.00    +0.002 A 
ATOM      8  C   UNL     1      -5.176  -0.976   0.624  0.00  0.00    +0.024 A 
ATOM      9  C   UNL     1      -4.065  -0.232   0.177  0.00  0.00    +0.040 A 
ATOM     10  N   UNL     1      -2.781  -0.439   0.812  0.00  0.00    -0.259 N 
ATOM     11  C   UNL     1      -1.856   0.643   0.959  0.00  0.00    +0.237 C 
ATOM     12  O   UNL     1      -1.718   1.204   2.082  0.00  0.00    -0.274 OA
ENDROOT
BRANCH   1  13
ATOM     13  N   UNL     1       0.235   0.242  -0.202  0.00  0.00    -0.293 NA
ATOM     14  H   UNL     1       0.571   0.087  -1.182  0.00  0.00    +0.123 HD
BRANCH  13  15
ATOM     15  C   UNL     1       1.317   0.851   0.598  0.00  0.00    +0.164 C 
BRANCH  15  16
ATOM     16  C   UNL     1       1.938   2.032  -0.109  0.00  0.00    +0.324 C 
ATOM     17  O   UNL     1       2.242   3.061   0.553  0.00  0.00    -0.249 OA
BRANCH  16  18
ATOM     18  O   UNL     1       2.192   1.972  -1.486  0.00  0.00    -0.464 OA
BRANCH  18  20
ATOM     19  C   UNL     1       1.531   4.026  -2.583  0.00  0.00    +0.048 C 
ATOM     20  C   UNL     1       2.673   3.079  -2.243  0.00  0.00    +0.229 C 
ENDBRANCH  18  20
ENDBRANCH  16  18
ENDBRANCH  15  16
BRANCH  15  21
ATOM     21  C   UNL     1       2.375  -0.203   0.984  0.00  0.00    +0.035 C 
BRANCH  21  22
ATOM     22  C   UNL     1       3.078  -0.867  -0.212  0.00  0.00    +0.037 C 
BRANCH  22  23
ATOM     23  C   UNL     1       4.159  -1.799   0.267  0.00  0.00    -0.047 A 
ATOM     24  C   UNL     1       5.473  -1.331   0.434  0.00  0.00    +0.003 A 
ATOM     25  C   UNL     1       6.472  -2.188   0.910  0.00  0.00    +0.000 A 
ATOM     26  C   UNL     1       6.163  -3.511   1.235  0.00  0.00    +0.000 A 
ATOM     27  C   UNL     1       4.853  -3.980   1.088  0.00  0.00    +0.000 A 
ATOM     28  C   UNL     1       3.852  -3.127   0.611  0.00  0.00    +0.003 A 
ENDBRANCH  22  23
ENDBRANCH  21  22
ENDBRANCH  15  21
ENDBRANCH  13  15
ENDBRANCH   1  13
BRANCH  10  29
ATOM     29  C   UNL     1      -2.381  -1.752   1.332  0.00  0.00    +0.234 C 
BRANCH  29  30
ATOM     30  C   UNL     1      -2.674  -1.884   2.799  0.00  0.00    +0.323 C 
ATOM     31  O   UNL     1      -2.318  -2.925   3.411  0.00  0.00    -0.249 OA
BRANCH  30  32
ATOM     32  O   UNL     1      -3.354  -0.882   3.485  0.00  0.00    -0.480 OA
ATOM     33  H   UNL     1      -3.555  -0.969   4.475  0.00  0.00    +0.295 HD
ENDBRANCH  30  32
ENDBRANCH  29  30
ENDBRANCH  10  29
TORSDOF 11
