REMARK  Name = 
REMARK  5 active torsions:
REMARK  status: ('A' for Active; 'I' for Inactive)
REMARK    1  A    between atoms: N_1  and  S_2
REMARK    2  A    between atoms: S_2  and  C_5
REMARK    3  A    between atoms: C_10  and  C_11
REMARK    4  A    between atoms: C_11  and  C_12
REMARK    5  A    between atoms: C_23  and  C_24
REMARK                            x       y       z     vdW  Elec       q    Type
REMARK                         _______ _______ _______ _____ _____    ______ ____
ROOT
ATOM      1  C   UNL     1      -3.331  -0.135   0.699  0.00  0.00    +0.119 A 
ATOM      2  C   UNL     1      -2.202  -0.881   1.078  0.00  0.00    +0.059 A 
ATOM      3  C   UNL     1      -1.029  -0.842   0.323  0.00  0.00    +0.128 A 
ATOM      4  C   UNL     1      -0.957  -0.054  -0.824  0.00  0.00    +0.056 A 
ATOM      5  N   UNL     1       0.244  -0.020  -1.608  0.00  0.00    -0.326 N 
ATOM      6  C   UNL     1       1.572  -0.323  -1.061  0.00  0.00    +0.164 C 
ATOM      7  N   UNL     1       1.608  -1.645  -0.412  0.00  0.00    -0.170 NA
ATOM      8  S   UNL     1       0.344  -1.831   0.769  0.00  0.00    +0.062 S 
ATOM      9  O   UNL     1      -0.077  -3.274   0.814  0.00  0.00    -0.153 OA
ATOM     10  O   UNL     1       0.848  -1.417   2.122  0.00  0.00    -0.153 OA
ATOM     11  C   UNL     1      -2.074   0.688  -1.222  0.00  0.00    +0.039 A 
ATOM     12  C   UNL     1      -3.263   0.690  -0.461  0.00  0.00    +0.083 A 
ATOM     13  H   UNL     1       0.191   0.326  -2.594  0.00  0.00    +0.148 HD
ATOM     14  H   UNL     1       1.443  -2.366  -1.151  0.00  0.00    +0.150 HD
ENDROOT
BRANCH  12  15
ATOM     15  C   UNL     1      -4.440   1.512  -0.958  0.00  0.00    +0.419 C 
ATOM     16  F   UNL     1      -5.344   0.682  -1.593  0.00  0.00    -0.166 F 
ATOM     17  F   UNL     1      -5.065   2.167   0.084  0.00  0.00    -0.166 F 
ATOM     18  F   UNL     1      -4.033   2.478  -1.863  0.00  0.00    -0.166 F 
ENDBRANCH  12  15
BRANCH   1  19
ATOM     19  S   UNL     1      -4.784  -0.273   1.712  0.00  0.00    +0.057 S 
ATOM     20  O   UNL     1      -4.639  -1.430   2.662  0.00  0.00    -0.153 OA
ATOM     21  O   UNL     1      -4.960   0.985   2.514  0.00  0.00    -0.153 OA
BRANCH  19  22
ATOM     22  N   UNL     1      -6.186  -0.550   0.739  0.00  0.00    -0.203 NA
ATOM     23  H   UNL     1      -6.993  -0.670   1.392  0.00  0.00    +0.144 HD
ATOM     24  H   UNL     1      -6.047  -1.467   0.258  0.00  0.00    +0.144 HD
ENDBRANCH  19  22
ENDBRANCH   1  19
BRANCH   6  25
ATOM     25  C   UNL     1       2.043   0.803  -0.118  0.00  0.00    +0.075 C 
BRANCH  25  26
ATOM     26  C   UNL     1       3.493   0.636   0.264  0.00  0.00    -0.044 A 
ATOM     27  C   UNL     1       4.505   0.951  -0.660  0.00  0.00    +0.004 A 
ATOM     28  C   UNL     1       5.850   0.779  -0.318  0.00  0.00    +0.000 A 
ATOM     29  C   UNL     1       6.195   0.292   0.945  0.00  0.00    +0.000 A 
ATOM     30  C   UNL     1       5.196  -0.023   1.869  0.00  0.00    +0.000 A 
ATOM     31  C   UNL     1       3.849   0.147   1.532  0.00  0.00    +0.004 A 
ENDBRANCH  25  26
ENDBRANCH   6  25
TORSDOF 5
