REMARK  Name = 
REMARK  2 active torsions:
REMARK  status: ('A' for Active; 'I' for Inactive)
REMARK    1  A    between atoms: AL_6  and  O_7
REMARK    2  A    between atoms: O_7  and  AL_8
REMARK                            x       y       z     vdW  Elec       q    Type
REMARK                         _______ _______ _______ _____ _____    ______ ____
ROOT
ATOM      1  O   HOH     1      -0.028   0.403   0.000  0.00  0.00    +0.000 OA
ATOM      2  H   HOH     0      -0.767  -0.256   0.000  0.00  0.00    +0.000 HD
ATOM      3  H   HOH     0       0.795  -0.147   0.000  0.00  0.00    +0.000 HD
ENDROOT
TORSDOF 0
REMARK  Name = 
REMARK  2 active torsions:
REMARK  status: ('A' for Active; 'I' for Inactive)
REMARK    1  A    between atoms: AL_6  and  O_7
REMARK    2  A    between atoms: O_7  and  AL_8
REMARK                            x       y       z     vdW  Elec       q    Type
REMARK                         _______ _______ _______ _____ _____    ______ ____
ROOT
ATOM      1  O   UNL     1      -1.491   0.116   0.000  0.00  0.00    +0.000 OA
ATOM      2 SI   UNL     1       0.000  -0.379   0.000  0.00  0.00    +0.000 Si
ATOM      3  O   UNL     1       1.491  -0.874   0.000  0.00  0.00    +0.000 OA
ENDROOT
TORSDOF 0
REMARK  Name = 
REMARK  2 active torsions:
REMARK  status: ('A' for Active; 'I' for Inactive)
REMARK    1  A    between atoms: AL_6  and  O_7
REMARK    2  A    between atoms: O_7  and  AL_8
REMARK                            x       y       z     vdW  Elec       q    Type
REMARK                         _______ _______ _______ _____ _____    ______ ____
ROOT
ATOM      1  O   UNL     1      -0.026  -1.039   0.249  0.00  0.00    +0.000 OA
ENDROOT
BRANCH   1   3
ATOM      2  O   UNL     1      -3.034   0.685  -0.433  0.00  0.00    +0.000 OA
ATOM      3 AL   UNL     1      -1.606  -0.134  -0.109  0.00  0.00    +0.000 Al
ENDBRANCH   1   3
BRANCH   1   4
ATOM      4 AL   UNL     1       1.599  -0.156   0.100  0.00  0.00    +0.000 Al
ATOM      5  O   UNL     1       3.068   0.643  -0.034  0.00  0.00    +0.000 OA
ENDBRANCH   1   4
TORSDOF 2
