REMARK  Name = 
REMARK  9 active torsions:
REMARK  status: ('A' for Active; 'I' for Inactive)
REMARK    1  A    between atoms: O_1  and  C_2
REMARK    2  A    between atoms: C_2  and  C_4
REMARK    3  A    between atoms: C_7  and  N_8
REMARK    4  A    between atoms: C_9  and  C_11
REMARK    5  A    between atoms: C_11  and  C_12
REMARK    6  A    between atoms: C_11  and  N_20
REMARK    7  A    between atoms: C_12  and  C_13
REMARK    8  A    between atoms: C_16  and  O_17
REMARK    9  A    between atoms: C_21  and  C_23
REMARK                            x       y       z     vdW  Elec       q    Type
REMARK                         _______ _______ _______ _____ _____    ______ ____
ROOT
ATOM      1  C   UNL     1      -0.274  -0.806  -0.234  0.00  0.00    +0.164 C 
ENDROOT
BRANCH   1   3
ATOM      2  N   UNL     1       2.011  -0.213   0.731  0.00  0.00    -0.284 N 
ATOM      3  C   UNL     1       1.052  -0.100  -0.334  0.00  0.00    +0.238 C 
ATOM      4  O   UNL     1       1.296   0.619  -1.341  0.00  0.00    -0.273 OA
ATOM      5  H   UNL     1       1.675  -0.558   1.658  0.00  0.00    +0.155 HD
BRANCH   2   9
ATOM      6  C   UNL     1       6.069   1.064   0.511  0.00  0.00    +0.059 A 
ATOM      7  C   UNL     1       5.351   1.145   1.716  0.00  0.00    +0.017 A 
ATOM      8  C   UNL     1       4.019   0.725   1.777  0.00  0.00    +0.024 A 
ATOM      9  C   UNL     1       3.375   0.232   0.634  0.00  0.00    +0.033 A 
ATOM     10  C   UNL     1       4.097   0.128  -0.567  0.00  0.00    +0.024 A 
ATOM     11  C   UNL     1       5.429   0.546  -0.629  0.00  0.00    +0.017 A 
BRANCH   6  12
ATOM     12  C   UNL     1       7.479   1.509   0.449  0.00  0.00    +0.337 C 
ATOM     13  O   UNL     1       8.127   1.430  -0.629  0.00  0.00    -0.245 OA
BRANCH  12  14
ATOM     14  O   UNL     1       8.104   2.021   1.584  0.00  0.00    -0.477 OA
ATOM     15  H   UNL     1       9.068   2.328   1.553  0.00  0.00    +0.295 HD
ENDBRANCH  12  14
ENDBRANCH   6  12
ENDBRANCH   2   9
ENDBRANCH   1   3
BRANCH   1  16
ATOM     16  N   UNL     1      -1.358   0.178  -0.326  0.00  0.00    -0.300 N 
ATOM     17  C   UNL     1      -1.680   1.056   0.766  0.00  0.00    +0.245 C 
ATOM     18  O   UNL     1      -1.146   0.868   1.894  0.00  0.00    -0.270 OA
ATOM     19  H   UNL     1      -1.921   0.233  -1.205  0.00  0.00    +0.150 HD
BRANCH  17  20
ATOM     20  C   UNL     1      -2.643   2.170   0.596  0.00  0.00    +0.037 A 
ATOM     21  C   UNL     1      -2.860   2.760  -0.664  0.00  0.00    +0.013 A 
ATOM     22  C   UNL     1      -3.768   3.814  -0.805  0.00  0.00    +0.001 A 
ATOM     23  C   UNL     1      -4.463   4.295   0.306  0.00  0.00    +0.000 A 
ATOM     24  C   UNL     1      -4.247   3.726   1.564  0.00  0.00    +0.001 A 
ATOM     25  C   UNL     1      -3.340   2.673   1.711  0.00  0.00    +0.013 A 
ENDBRANCH  17  20
ENDBRANCH   1  16
BRANCH   1  26
ATOM     26  C   UNL     1      -0.388  -1.866  -1.347  0.00  0.00    +0.067 C 
BRANCH  26  27
ATOM     27  C   UNL     1      -1.633  -2.702  -1.186  0.00  0.00    -0.045 A 
ATOM     28  C   UNL     1      -2.773  -2.443  -1.964  0.00  0.00    +0.007 A 
ATOM     29  C   UNL     1      -3.933  -3.204  -1.791  0.00  0.00    +0.045 A 
ATOM     30  C   UNL     1      -3.968  -4.228  -0.839  0.00  0.00    +0.117 A 
ATOM     31  C   UNL     1      -2.835  -4.489  -0.057  0.00  0.00    +0.045 A 
ATOM     32  C   UNL     1      -1.674  -3.729  -0.228  0.00  0.00    +0.007 A 
BRANCH  30  33
ATOM     33  O   UNL     1      -5.131  -4.978  -0.677  0.00  0.00    -0.507 OA
ATOM     34  H   UNL     1      -5.189  -5.725   0.005  0.00  0.00    +0.292 HD
ENDBRANCH  30  33
ENDBRANCH  26  27
ENDBRANCH   1  26
TORSDOF 9
