REMARK  Name = 
REMARK  35 active torsions:
REMARK  status: ('A' for Active; 'I' for Inactive)
REMARK    1  A    between atoms: C_1  and  C_2
REMARK    2  A    between atoms: C_2  and  C_3
REMARK    3  A    between atoms: C_3  and  C_4
REMARK    4  A    between atoms: C_4  and  N_5
REMARK    5  A    between atoms: N_5  and  C_6
REMARK    6  A    between atoms: C_9  and  C_12
REMARK    7  A    between atoms: C_12  and  O_14
REMARK    8  A    between atoms: O_14  and  C_15
REMARK    9  A    between atoms: C_15  and  C_16
REMARK   10  A    between atoms: C_16  and  O_17
REMARK   11  A    between atoms: O_17  and  C_18
REMARK   12  A    between atoms: C_18  and  C_19
REMARK   13  A    between atoms: C_19  and  O_20
REMARK   14  A    between atoms: O_20  and  C_21
REMARK   15  A    between atoms: C_21  and  C_22
REMARK   16  A    between atoms: C_22  and  O_23
REMARK   17  A    between atoms: O_23  and  C_24
REMARK   18  A    between atoms: C_24  and  C_25
REMARK   19  A    between atoms: C_25  and  O_26
REMARK   20  A    between atoms: O_26  and  C_27
REMARK   21  A    between atoms: C_27  and  C_28
REMARK   22  A    between atoms: C_28  and  O_29
REMARK   23  A    between atoms: O_29  and  C_30
REMARK   24  A    between atoms: C_30  and  C_31
REMARK   25  A    between atoms: C_31  and  O_32
REMARK   26  A    between atoms: O_32  and  C_33
REMARK   27  A    between atoms: C_33  and  C_34
REMARK   28  A    between atoms: C_34  and  O_35
REMARK   29  A    between atoms: O_35  and  C_36
REMARK   30  A    between atoms: C_36  and  C_37
REMARK   31  A    between atoms: C_37  and  O_38
REMARK   32  A    between atoms: O_38  and  C_39
REMARK   33  A    between atoms: C_39  and  C_40
REMARK   34  A    between atoms: C_40  and  O_41
REMARK   35  A    between atoms: O_41  and  C_42
REMARK                            x       y       z     vdW  Elec       q    Type
REMARK                         _______ _______ _______ _____ _____    ______ ____
ROOT
ATOM      1  C   UNL     1      -1.624   0.277  -1.276  0.00  0.00    +0.188 C 
ENDROOT
BRANCH   1   2
ATOM      2  O   UNL     1      -2.336   0.782  -0.165  0.00  0.00    -0.375 OA
BRANCH   2   3
ATOM      3  C   UNL     1      -3.072   1.926  -0.547  0.00  0.00    +0.188 C 
BRANCH   3   4
ATOM      4  C   UNL     1      -3.784   2.489   0.676  0.00  0.00    +0.188 C 
BRANCH   4   5
ATOM      5  O   UNL     1      -4.627   1.495   1.217  0.00  0.00    -0.374 OA
BRANCH   5   6
ATOM      6  C   UNL     1      -5.215   1.968   2.411  0.00  0.00    +0.201 C 
BRANCH   6   7
ATOM      7  C   UNL     1      -6.199   0.925   2.928  0.00  0.00    +0.260 C 
BRANCH   7   8
ATOM      8  O   UNL     1      -7.206   0.697   1.948  0.00  0.00    -0.459 OA
BRANCH   8   9
ATOM      9  C   UNL     1      -8.225  -0.249   2.106  0.00  0.00    +0.339 C 
ATOM     10  O   UNL     1      -8.286  -0.939   3.162  0.00  0.00    -0.245 OA
BRANCH   9  14
ATOM     11  C   UNL     1     -11.116  -0.788  -1.041  0.00  0.00    +0.027 A 
ATOM     12  C   UNL     1     -11.177  -1.575   0.127  0.00  0.00    +0.024 A 
ATOM     13  C   UNL     1     -10.234  -1.405   1.144  0.00  0.00    +0.017 A 
ATOM     14  C   UNL     1      -9.217  -0.443   1.026  0.00  0.00    +0.059 A 
ATOM     15  C   UNL     1      -9.157   0.340  -0.139  0.00  0.00    +0.017 A 
ATOM     16  C   UNL     1     -10.097   0.168  -1.157  0.00  0.00    +0.024 A 
BRANCH  11  17
ATOM     17  N   UNL     1     -12.066  -0.923  -2.121  0.00  0.00    -0.344 N 
ATOM     18  H   UNL     1     -11.956  -0.293  -2.948  0.00  0.00    +0.146 HD
BRANCH  17  19
ATOM     19  C   UNL     1     -13.229  -1.812  -2.137  0.00  0.00    +0.101 C 
BRANCH  19  20
ATOM     20  C   UNL     1     -14.496  -1.076  -1.685  0.00  0.00    +0.018 C 
BRANCH  20  22
ATOM     21  C   UNL     1     -15.768  -0.034   0.228  0.00  0.00    +0.004 C 
ATOM     22  C   UNL     1     -14.471  -0.714  -0.195  0.00  0.00    -0.002 C 
ENDBRANCH  20  22
ENDBRANCH  19  20
ENDBRANCH  17  19
ENDBRANCH  11  17
ENDBRANCH   9  14
ENDBRANCH   8   9
ENDBRANCH   7   8
ENDBRANCH   6   7
ENDBRANCH   5   6
ENDBRANCH   4   5
ENDBRANCH   3   4
ENDBRANCH   2   3
ENDBRANCH   1   2
BRANCH   1  23
ATOM     23  C   UNL     1      -0.759  -0.893  -0.800  0.00  0.00    +0.188 C 
BRANCH  23  24
ATOM     24  O   UNL     1      -0.120  -1.573  -1.868  0.00  0.00    -0.375 OA
BRANCH  24  25
ATOM     25  C   UNL     1       1.007  -0.871  -2.375  0.00  0.00    +0.188 C 
BRANCH  25  26
ATOM     26  C   UNL     1       2.174  -0.781  -1.378  0.00  0.00    +0.188 C 
BRANCH  26  27
ATOM     27  O   UNL     1       2.089   0.442  -0.673  0.00  0.00    -0.375 OA
BRANCH  27  28
ATOM     28  C   UNL     1       3.012   0.479   0.397  0.00  0.00    +0.188 C 
BRANCH  28  29
ATOM     29  C   UNL     1       4.396   0.940  -0.083  0.00  0.00    +0.188 C 
BRANCH  29  30
ATOM     30  O   UNL     1       5.195   1.390   0.996  0.00  0.00    -0.375 OA
BRANCH  30  31
ATOM     31  C   UNL     1       5.757   0.297   1.698  0.00  0.00    +0.188 C 
BRANCH  31  32
ATOM     32  C   UNL     1       6.822   0.808   2.674  0.00  0.00    +0.188 C 
BRANCH  32  33
ATOM     33  O   UNL     1       7.774   1.651   2.050  0.00  0.00    -0.375 OA
BRANCH  33  34
ATOM     34  C   UNL     1       8.590   0.925   1.147  0.00  0.00    +0.188 C 
BRANCH  34  35
ATOM     35  C   UNL     1       9.943   1.623   1.017  0.00  0.00    +0.188 C 
BRANCH  35  36
ATOM     36  O   UNL     1      10.693   1.048  -0.034  0.00  0.00    -0.375 OA
BRANCH  36  37
ATOM     37  C   UNL     1      11.500  -0.019   0.426  0.00  0.00    +0.188 C 
BRANCH  37  38
ATOM     38  C   UNL     1      12.940   0.454   0.595  0.00  0.00    +0.188 C 
BRANCH  38  39
ATOM     39  O   UNL     1      13.748  -0.656   0.941  0.00  0.00    -0.375 OA
BRANCH  39  40
ATOM     40  C   UNL     1      14.993  -0.619   0.267  0.00  0.00    +0.188 C 
BRANCH  40  41
ATOM     41  C   UNL     1      14.885  -1.308  -1.095  0.00  0.00    +0.187 C 
BRANCH  41  42
ATOM     42  O   UNL     1      16.157  -1.337  -1.705  0.00  0.00    -0.381 OA
ATOM     43  C   UNL     1      16.055  -1.953  -2.969  0.00  0.00    +0.194 C 
ENDBRANCH  41  42
ENDBRANCH  40  41
ENDBRANCH  39  40
ENDBRANCH  38  39
ENDBRANCH  37  38
ENDBRANCH  36  37
ENDBRANCH  35  36
ENDBRANCH  34  35
ENDBRANCH  33  34
ENDBRANCH  32  33
ENDBRANCH  31  32
ENDBRANCH  30  31
ENDBRANCH  29  30
ENDBRANCH  28  29
ENDBRANCH  27  28
ENDBRANCH  26  27
ENDBRANCH  25  26
ENDBRANCH  24  25
ENDBRANCH  23  24
ENDBRANCH   1  23
TORSDOF 33
