REMARK  Name = 
REMARK  7 active torsions:
REMARK  status: ('A' for Active; 'I' for Inactive)
REMARK    1  A    between atoms: C_1  and  C_2
REMARK    2  A    between atoms: C_2  and  C_3
REMARK    3  A    between atoms: C_2  and  N_10
REMARK    4  A    between atoms: C_3  and  C_4
REMARK    5  A    between atoms: N_10  and  C_11
REMARK    6  A    between atoms: N_10  and  C_12
REMARK    7  A    between atoms: C_12  and  C_13
REMARK                            x       y       z     vdW  Elec       q    Type
REMARK                         _______ _______ _______ _____ _____    ______ ____
ROOT
ATOM      1  C   UNL     1       1.235  -1.781   1.588  0.00  0.00    +0.024 C 
ATOM      2  C   UNL     1       0.643  -0.540   0.874  0.00  0.00    +0.058 C 
ENDROOT
BRANCH   2   3
ATOM      3  N   UNL     1      -0.852  -0.512   0.863  0.00  0.00    -0.298 NA
ATOM      4  C   UNL     1      -1.474  -1.078   2.080  0.00  0.00    +0.105 C 
BRANCH   3   5
ATOM      5  C   UNL     1      -1.359   0.868   0.660  0.00  0.00    +0.119 C 
BRANCH   5   6
ATOM      6  C   UNL     1      -2.683   0.836  -0.056  0.00  0.00    -0.033 A 
ATOM      7  C   UNL     1      -3.861   1.234   0.597  0.00  0.00    +0.005 A 
ATOM      8  C   UNL     1      -5.088   1.190  -0.074  0.00  0.00    +0.000 A 
ATOM      9  C   UNL     1      -5.146   0.748  -1.399  0.00  0.00    +0.000 A 
ATOM     10  C   UNL     1      -3.978   0.349  -2.054  0.00  0.00    +0.000 A 
ATOM     11  C   UNL     1      -2.750   0.391  -1.387  0.00  0.00    +0.005 A 
ENDBRANCH   5   6
ENDBRANCH   3   5
ENDBRANCH   2   3
BRANCH   2  12
ATOM     12  C   UNL     1       1.163  -0.521  -0.588  0.00  0.00    +0.053 C 
BRANCH  12  13
ATOM     13  C   UNL     1       2.621  -0.143  -0.672  0.00  0.00    -0.046 A 
ATOM     14  C   UNL     1       3.014   1.193  -0.482  0.00  0.00    +0.004 A 
ATOM     15  C   UNL     1       4.366   1.546  -0.548  0.00  0.00    +0.000 A 
ATOM     16  C   UNL     1       5.333   0.570  -0.803  0.00  0.00    +0.000 A 
ATOM     17  C   UNL     1       4.950  -0.761  -0.992  0.00  0.00    +0.000 A 
ATOM     18  C   UNL     1       3.600  -1.119  -0.928  0.00  0.00    +0.004 A 
ENDBRANCH  12  13
ENDBRANCH   2  12
TORSDOF 5
