REMARK  Name = 
REMARK  4 active torsions:
REMARK  status: ('A' for Active; 'I' for Inactive)
REMARK    1  A    between atoms: C_2  and  O_3
REMARK    2  A    between atoms: C_2  and  C_11
REMARK    3  A    between atoms: O_3  and  C_4
REMARK    4  A    between atoms: C_4  and  C_5
REMARK                            x       y       z     vdW  Elec       q    Type
REMARK                         _______ _______ _______ _____ _____    ______ ____
ROOT
ATOM      1  O   UNL     1       1.450   1.650   2.071  0.00  0.00    -0.245 OA
ATOM      2  C   UNL     1       1.284   0.842   1.115  0.00  0.00    +0.339 C 
ENDROOT
BRANCH   2   3
ATOM      3  C   UNL     1       2.454   0.271   0.412  0.00  0.00    +0.059 A 
ATOM      4  C   UNL     1       3.763   0.617   0.796  0.00  0.00    +0.015 A 
ATOM      5  C   UNL     1       4.864   0.073   0.127  0.00  0.00    +0.001 A 
ATOM      6  C   UNL     1       4.670  -0.820  -0.930  0.00  0.00    +0.000 A 
ATOM      7  C   UNL     1       3.376  -1.171  -1.319  0.00  0.00    +0.001 A 
ATOM      8  C   UNL     1       2.271  -0.630  -0.653  0.00  0.00    +0.015 A 
ENDBRANCH   2   3
BRANCH   2   9
ATOM      9  O   UNL     1      -0.009   0.485   0.718  0.00  0.00    -0.456 OA
BRANCH   9  10
ATOM     10  C   UNL     1      -1.178   0.995   1.348  0.00  0.00    +0.268 C 
BRANCH  10  11
ATOM     11  C   UNL     1      -2.391   0.414   0.683  0.00  0.00    -0.010 A 
ATOM     12  C   UNL     1      -2.926  -0.806   1.129  0.00  0.00    +0.007 A 
ATOM     13  C   UNL     1      -4.032  -1.367   0.483  0.00  0.00    +0.000 A 
ATOM     14  C   UNL     1      -4.603  -0.721  -0.618  0.00  0.00    +0.000 A 
ATOM     15  C   UNL     1      -4.065   0.485  -1.077  0.00  0.00    +0.000 A 
ATOM     16  C   UNL     1      -2.959   1.048  -0.434  0.00  0.00    +0.007 A 
ENDBRANCH  10  11
ENDBRANCH   9  10
ENDBRANCH   2   9
TORSDOF 4
