REMARK  Name = 
REMARK  5 active torsions:
REMARK  status: ('A' for Active; 'I' for Inactive)
REMARK    1  A    between atoms: C_6  and  O_8
REMARK    2  A    between atoms: O_8  and  C_9
REMARK    3  A    between atoms: C_9  and  C_10
REMARK    4  A    between atoms: C_9  and  C_16
REMARK    5  A    between atoms: N_22  and  C_23
REMARK                            x       y       z     vdW  Elec       q    Type
REMARK                         _______ _______ _______ _____ _____    ______ ____
ROOT
ATOM      1  C   UNL     1      -1.400   0.209  -0.519  0.00  0.00    +0.179 C 
ENDROOT
BRANCH   1   2
ATOM      2  C   UNL     1      -1.930  -0.618   0.632  0.00  0.00    -0.014 A 
ATOM      3  C   UNL     1      -1.946  -0.106   1.943  0.00  0.00    +0.006 A 
ATOM      4  C   UNL     1      -2.456  -0.874   2.995  0.00  0.00    +0.000 A 
ATOM      5  C   UNL     1      -2.961  -2.153   2.748  0.00  0.00    +0.000 A 
ATOM      6  C   UNL     1      -2.959  -2.665   1.448  0.00  0.00    +0.000 A 
ATOM      7  C   UNL     1      -2.452  -1.901   0.394  0.00  0.00    +0.006 A 
ENDBRANCH   1   2
BRANCH   1   8
ATOM      8  C   UNL     1      -2.447   1.227  -0.923  0.00  0.00    -0.014 A 
ATOM      9  C   UNL     1      -2.521   2.483  -0.290  0.00  0.00    +0.006 A 
ATOM     10  C   UNL     1      -3.520   3.396  -0.644  0.00  0.00    +0.000 A 
ATOM     11  C   UNL     1      -4.455   3.067  -1.628  0.00  0.00    +0.000 A 
ATOM     12  C   UNL     1      -4.396   1.821  -2.255  0.00  0.00    +0.000 A 
ATOM     13  C   UNL     1      -3.410   0.898  -1.896  0.00  0.00    +0.006 A 
ENDBRANCH   1   8
BRANCH   1  14
ATOM     14  O   UNL     1      -0.205   0.879  -0.139  0.00  0.00    -0.364 OA
BRANCH  14  20
ATOM     15  C   UNL     1       2.750  -1.454   0.354  0.00  0.00    +0.059 C 
ATOM     16  C   UNL     1       3.458  -0.820   1.565  0.00  0.00    +0.020 C 
ATOM     17  C   UNL     1       3.983   0.508   1.037  0.00  0.00    +0.020 C 
ATOM     18  C   UNL     1       3.537   0.529  -0.438  0.00  0.00    +0.059 C 
ATOM     19  C   UNL     1       2.148   1.215  -0.578  0.00  0.00    +0.050 C 
ATOM     20  C   UNL     1       0.967   0.199  -0.563  0.00  0.00    +0.122 C 
ATOM     21  C   UNL     1       1.246  -1.055   0.327  0.00  0.00    +0.050 C 
ATOM     22  N   UNL     1       3.386  -0.879  -0.839  0.00  0.00    -0.299 NA
ATOM     23  C   UNL     1       4.673  -1.520  -1.158  0.00  0.00    +0.105 C 
ENDBRANCH  14  20
ENDBRANCH   1  14
TORSDOF 4
