REMARK  Name = 
REMARK  5 active torsions:
REMARK  status: ('A' for Active; 'I' for Inactive)
REMARK    1  A    between atoms: C_1  and  C_2
REMARK    2  A    between atoms: C_2  and  O_3
REMARK    3  A    between atoms: O_3  and  C_4
REMARK    4  A    between atoms: C_4  and  C_6
REMARK    5  A    between atoms: C_9  and  N_10
REMARK                            x       y       z     vdW  Elec       q    Type
REMARK                         _______ _______ _______ _____ _____    ______ ____
ROOT
ATOM      1  C   UNL     1       0.304   0.296  -0.363  0.00  0.00    +0.059 A 
ATOM      2  C   UNL     1       0.883  -0.973  -0.187  0.00  0.00    +0.017 A 
ATOM      3  C   UNL     1       2.273  -1.122  -0.167  0.00  0.00    +0.023 A 
ATOM      4  C   UNL     1       3.106  -0.006  -0.323  0.00  0.00    +0.025 A 
ATOM      5  C   UNL     1       2.535   1.262  -0.499  0.00  0.00    +0.023 A 
ATOM      6  C   UNL     1       1.146   1.413  -0.519  0.00  0.00    +0.017 A 
ENDROOT
BRANCH   4   7
ATOM      7  N   UNL     1       4.527  -0.160  -0.303  0.00  0.00    -0.358 N 
ATOM      8  H   UNL     1       5.156   0.666  -0.418  0.00  0.00    +0.142 HD
ATOM      9  H   UNL     1       4.961  -1.101  -0.172  0.00  0.00    +0.142 HD
ENDBRANCH   4   7
BRANCH   1  10
ATOM     10  C   UNL     1      -1.167   0.450  -0.383  0.00  0.00    +0.339 C 
ATOM     11  O   UNL     1      -1.682   1.591  -0.541  0.00  0.00    -0.245 OA
BRANCH  10  12
ATOM     12  O   UNL     1      -1.987  -0.676  -0.232  0.00  0.00    -0.461 OA
BRANCH  12  14
ATOM     13  C   UNL     1      -3.882  -0.097   1.169  0.00  0.00    +0.048 C 
ATOM     14  C   UNL     1      -3.411  -0.613  -0.186  0.00  0.00    +0.229 C 
ENDBRANCH  12  14
ENDBRANCH  10  12
ENDBRANCH   1  10
TORSDOF 4
