REMARK  Name = 
REMARK  6 active torsions:
REMARK  status: ('A' for Active; 'I' for Inactive)
REMARK    1  A    between atoms: N_1  and  S_2
REMARK    2  A    between atoms: S_2  and  C_5
REMARK    3  A    between atoms: C_11  and  C_12
REMARK    4  A    between atoms: C_12  and  S_13
REMARK    5  A    between atoms: S_13  and  C_14
REMARK    6  A    between atoms: C_14  and  C_15
REMARK                            x       y       z     vdW  Elec       q    Type
REMARK                         _______ _______ _______ _____ _____    ______ ____
ROOT
ATOM      1  C   UNL     1      -4.457  -0.497   1.074  0.00  0.00    +0.125 A 
ATOM      2  C   UNL     1      -3.465  -1.452   1.372  0.00  0.00    +0.069 A 
ATOM      3 CL   UNL     1      -3.834  -2.935   2.246  0.00  0.00    -0.081 Cl
ATOM      4  C   UNL     1      -2.142  -1.231   0.973  0.00  0.00    +0.047 A 
ATOM      5  C   UNL     1      -1.785  -0.067   0.274  0.00  0.00    +0.061 A 
ATOM      6  N   UNL     1      -0.413   0.129  -0.119  0.00  0.00    -0.299 N 
ATOM      7  C   UNL     1       0.099   1.257  -0.859  0.00  0.00    +0.131 C 
ATOM      8  N   UNL     1      -0.654   2.254  -1.213  0.00  0.00    -0.117 NA
ATOM      9  S   UNL     1      -2.343   2.330  -0.879  0.00  0.00    +0.102 S 
ATOM     10  O   UNL     1      -2.632   3.533  -0.026  0.00  0.00    -0.146 OA
ATOM     11  O   UNL     1      -3.108   2.409  -2.170  0.00  0.00    -0.146 OA
ATOM     12  C   UNL     1      -2.776   0.878  -0.020  0.00  0.00    +0.135 A 
ATOM     13  C   UNL     1      -4.101   0.665   0.374  0.00  0.00    +0.061 A 
ATOM     14  H   UNL     1       0.277  -0.607   0.156  0.00  0.00    +0.153 HD
ENDROOT
BRANCH   1  15
ATOM     15  S   UNL     1      -6.138  -0.742   1.562  0.00  0.00    +0.057 S 
ATOM     16  O   UNL     1      -6.979   0.437   1.155  0.00  0.00    -0.153 OA
ATOM     17  O   UNL     1      -6.210  -0.894   3.055  0.00  0.00    -0.153 OA
BRANCH  15  18
ATOM     18  N   UNL     1      -6.758  -2.165   0.800  0.00  0.00    -0.203 NA
ATOM     19  H   UNL     1      -6.715  -2.002  -0.231  0.00  0.00    +0.144 HD
ATOM     20  H   UNL     1      -7.770  -2.231   1.053  0.00  0.00    +0.144 HD
ENDBRANCH  15  18
ENDBRANCH   1  15
BRANCH   7  21
ATOM     21  C   UNL     1       1.560   1.315  -1.176  0.00  0.00    +0.142 C 
BRANCH  21  22
ATOM     22  S   UNL     1       2.463   1.965   0.270  0.00  0.00    -0.148 S 
BRANCH  22  23
ATOM     23  C   UNL     1       4.115   1.939  -0.511  0.00  0.00    +0.104 C 
BRANCH  23  24
ATOM     24  C   UNL     1       4.658   0.537  -0.562  0.00  0.00    -0.038 A 
ATOM     25  C   UNL     1       4.714  -0.164  -1.778  0.00  0.00    +0.004 A 
ATOM     26  C   UNL     1       5.202  -1.474  -1.813  0.00  0.00    +0.000 A 
ATOM     27  C   UNL     1       5.636  -2.092  -0.637  0.00  0.00    +0.000 A 
ATOM     28  C   UNL     1       5.581  -1.402   0.577  0.00  0.00    +0.000 A 
ATOM     29  C   UNL     1       5.093  -0.092   0.617  0.00  0.00    +0.004 A 
ENDBRANCH  23  24
ENDBRANCH  22  23
ENDBRANCH  21  22
ENDBRANCH   7  21
TORSDOF 6
