REMARK  Name = 
REMARK  12 active torsions:
REMARK  status: ('A' for Active; 'I' for Inactive)
REMARK    1  A    between atoms: C_1  and  C_2
REMARK    2  A    between atoms: C_2  and  N_3
REMARK    3  A    between atoms: N_3  and  C_4
REMARK    4  A    between atoms: C_4  and  C_5
REMARK    5  A    between atoms: C_6  and  C_8
REMARK    6  A    between atoms: C_15  and  O_16
REMARK    7  A    between atoms: O_16  and  C_17
REMARK    8  A    between atoms: C_18  and  O_19
REMARK    9  A    between atoms: O_19  and  C_20
REMARK   10  A    between atoms: C_25  and  O_26
REMARK   11  A    between atoms: O_26  and  C_27
REMARK   12  A    between atoms: C_27  and  C_28
REMARK                            x       y       z     vdW  Elec       q    Type
REMARK                         _______ _______ _______ _____ _____    ______ ____
ROOT
ATOM      1  C   UNL     1       1.655  -0.053   0.147  0.00  0.00    +0.130 C 
ATOM      2  C   UNL     1       0.669  -1.229  -0.051  0.00  0.00    +0.101 C 
ATOM      3  N   UNL     1      -0.258  -1.313   1.095  0.00  0.00    -0.294 NA
ATOM      4  C   UNL     1      -0.956  -2.608   1.177  0.00  0.00    +0.089 C 
ATOM      5  C   UNL     1      -1.919  -2.807   0.006  0.00  0.00    +0.051 C 
ATOM      6  C   UNL     1      -2.813  -1.612  -0.176  0.00  0.00    -0.038 A 
ATOM      7  C   UNL     1      -3.995  -1.761  -0.916  0.00  0.00    +0.053 A 
ATOM      8  C   UNL     1      -4.871  -0.678  -1.099  0.00  0.00    +0.162 A 
ATOM      9  C   UNL     1      -4.562   0.565  -0.533  0.00  0.00    +0.162 A 
ATOM     10  C   UNL     1      -3.368   0.720   0.196  0.00  0.00    +0.054 A 
ATOM     11  C   UNL     1      -2.463  -0.348   0.344  0.00  0.00    -0.023 A 
ATOM     12  C   UNL     1      -1.188  -0.153   1.167  0.00  0.00    +0.091 C 
ATOM     13  C   UNL     1      -0.463   1.172   0.791  0.00  0.00    +0.069 C 
ATOM     14  C   UNL     1       1.050   1.064   1.038  0.00  0.00    +0.191 C 
ENDROOT
BRANCH   1  16
ATOM     15  N   UNL     1       4.198  -0.627  -0.034  0.00  0.00    -0.302 N 
ATOM     16  C   UNL     1       2.966  -0.552   0.732  0.00  0.00    +0.223 C 
ATOM     17  O   UNL     1       2.961  -0.959   1.927  0.00  0.00    -0.275 OA
BRANCH  15  19
ATOM     18  C   UNL     1       4.464   1.224  -1.640  0.00  0.00    +0.024 C 
ATOM     19  C   UNL     1       4.269  -0.279  -1.461  0.00  0.00    +0.104 C 
ENDBRANCH  15  19
BRANCH  15  20
ATOM     20  C   UNL     1       5.425  -1.100   0.625  0.00  0.00    +0.104 C 
ATOM     21  C   UNL     1       5.449  -2.624   0.682  0.00  0.00    +0.024 C 
ENDBRANCH  15  20
ENDBRANCH   1  16
BRANCH   8  22
ATOM     22  O   UNL     1      -6.063  -0.798  -1.831  0.00  0.00    -0.491 OA
ATOM     23  C   UNL     1      -6.508  -1.996  -2.460  0.00  0.00    +0.277 C 
ENDBRANCH   8  22
BRANCH   9  24
ATOM     24  O   UNL     1      -5.466   1.623  -0.716  0.00  0.00    -0.491 OA
ATOM     25  C   UNL     1      -5.284   2.941  -0.207  0.00  0.00    +0.277 C 
ENDBRANCH   9  24
BRANCH  14  26
ATOM     26  O   UNL     1       1.693   2.303   0.734  0.00  0.00    -0.461 OA
BRANCH  26  27
ATOM     27  C   UNL     1       1.651   3.425   1.569  0.00  0.00    +0.304 C 
ATOM     28  C   UNL     1       2.309   4.688   1.131  0.00  0.00    +0.136 C 
ATOM     29  O   UNL     1       1.038   3.389   2.671  0.00  0.00    -0.251 OA
ENDBRANCH  26  27
ENDBRANCH  14  26
TORSDOF 7
