REMARK  Name = 
REMARK  2 active torsions:
REMARK  status: ('A' for Active; 'I' for Inactive)
REMARK    1  A    between atoms: O_1  and  C_2
REMARK    2  A    between atoms: C_2  and  C_3
REMARK                            x       y       z     vdW  Elec       q    Type
REMARK                         _______ _______ _______ _____ _____    ______ ____
ROOT
ATOM      1  C   UNL     1       0.465  -0.025   0.197  0.00  0.00    -0.022 A 
ATOM      2  C   UNL     1      -0.348  -1.171   0.193  0.00  0.00    +0.006 A 
ATOM      3  C   UNL     1      -1.725  -1.057  -0.028  0.00  0.00    +0.000 A 
ATOM      4  C   UNL     1      -2.296   0.198  -0.257  0.00  0.00    +0.000 A 
ATOM      5  C   UNL     1      -1.491   1.341  -0.271  0.00  0.00    +0.000 A 
ATOM      6  C   UNL     1      -0.114   1.231  -0.051  0.00  0.00    +0.006 A 
ENDROOT
BRANCH   1   7
ATOM      7  C   UNL     1       1.947  -0.150   0.396  0.00  0.00    +0.191 C 
BRANCH   7   8
ATOM      8  O   UNL     1       2.567  -0.336  -0.845  0.00  0.00    -0.390 OA
ATOM      9  H   UNL     1       3.539  -0.412  -0.658  0.00  0.00    +0.210 HD
ENDBRANCH   7   8
ENDBRANCH   1   7
TORSDOF 2
