REMARK  Name = 
REMARK  9 active torsions:
REMARK  status: ('A' for Active; 'I' for Inactive)
REMARK    1  A    between atoms: O_1  and  C_2
REMARK    2  A    between atoms: C_2  and  C_4
REMARK    3  A    between atoms: C_4  and  C_5
REMARK    4  A    between atoms: C_5  and  C_6
REMARK    5  A    between atoms: C_6  and  N_7
REMARK    6  A    between atoms: C_10  and  O_13
REMARK    7  A    between atoms: O_13  and  C_14
REMARK    8  A    between atoms: C_14  and  C_15
REMARK    9  A    between atoms: C_14  and  C_22
REMARK                            x       y       z     vdW  Elec       q    Type
REMARK                         _______ _______ _______ _____ _____    ______ ____
ROOT
ATOM      1  O   UNL     1      -1.753   0.667   0.691  0.00  0.00    -0.363 OA
ENDROOT
BRANCH   1   5
ATOM      2  N   UNL     1       2.310   1.303   0.304  0.00  0.00    -0.302 NA
ATOM      3  C   UNL     1       1.923   0.685   1.600  0.00  0.00    +0.087 C 
ATOM      4  C   UNL     1       0.394   0.626   1.807  0.00  0.00    +0.047 C 
ATOM      5  C   UNL     1      -0.352   0.706   0.468  0.00  0.00    +0.122 C 
ATOM      6  C   UNL     1      -0.001   2.024  -0.246  0.00  0.00    +0.047 C 
ATOM      7  C   UNL     1       1.454   2.467   0.002  0.00  0.00    +0.087 C 
BRANCH   2   8
ATOM      8  C   UNL     1       3.738   1.693   0.300  0.00  0.00    +0.085 C 
BRANCH   8   9
ATOM      9  C   UNL     1       4.644   0.464   0.139  0.00  0.00    +0.026 C 
BRANCH   9  10
ATOM     10  C   UNL     1       6.116   0.874   0.034  0.00  0.00    +0.121 C 
BRANCH  10  11
ATOM     11  C   UNL     1       6.987  -0.328  -0.152  0.00  0.00    +0.305 C 
ATOM     12  O   UNL     1       7.260  -1.068   0.831  0.00  0.00    -0.251 OA
BRANCH  11  13
ATOM     13  O   UNL     1       7.483  -0.639  -1.414  0.00  0.00    -0.481 OA
ATOM     14  H   UNL     1       8.072  -1.451  -1.556  0.00  0.00    +0.295 HD
ENDBRANCH  11  13
ENDBRANCH  10  11
ENDBRANCH   9  10
ENDBRANCH   8   9
ENDBRANCH   2   8
ENDBRANCH   1   5
BRANCH   1  15
ATOM     15  C   UNL     1      -2.269  -0.650   0.571  0.00  0.00    +0.197 C 
BRANCH  15  16
ATOM     16  C   UNL     1      -2.470  -1.015  -0.884  0.00  0.00    -0.013 A 
ATOM     17  C   UNL     1      -2.110  -2.292  -1.346  0.00  0.00    +0.008 A 
ATOM     18  C   UNL     1      -2.305  -2.640  -2.686  0.00  0.00    +0.020 A 
ATOM     19  C   UNL     1      -2.868  -1.720  -3.575  0.00  0.00    +0.041 A 
ATOM     20 CL   UNL     1      -3.110  -2.159  -5.255  0.00  0.00    -0.084 Cl
ATOM     21  C   UNL     1      -3.242  -0.451  -3.122  0.00  0.00    +0.020 A 
ATOM     22  C   UNL     1      -3.047  -0.100  -1.783  0.00  0.00    +0.008 A 
ENDBRANCH  15  16
BRANCH  15  23
ATOM     23  C   UNL     1      -3.593  -0.729   1.283  0.00  0.00    +0.074 A 
ATOM     24  C   UNL     1      -4.050  -1.948   1.806  0.00  0.00    +0.026 A 
ATOM     25  C   UNL     1      -5.298  -2.002   2.429  0.00  0.00    +0.003 A 
ATOM     26  C   UNL     1      -6.082  -0.851   2.518  0.00  0.00    +0.020 A 
ATOM     27  C   UNL     1      -5.604   0.343   1.974  0.00  0.00    +0.111 A 
ATOM     28  N   UNL     1      -4.386   0.376   1.370  0.00  0.00    -0.257 NA
ENDBRANCH  15  23
ENDBRANCH   1  15
TORSDOF 9
