REMARK  Name = 
REMARK  12 active torsions:
REMARK  status: ('A' for Active; 'I' for Inactive)
REMARK    1  A    between atoms: C_1  and  C_2
REMARK    2  A    between atoms: C_2  and  C_3
REMARK    3  A    between atoms: C_2  and  C_4
REMARK    4  A    between atoms: C_4  and  O_5
REMARK    5  A    between atoms: O_5  and  C_6
REMARK    6  A    between atoms: C_6  and  C_7
REMARK    7  A    between atoms: C_7  and  C_8
REMARK    8  A    between atoms: C_7  and  N_23
REMARK    9  A    between atoms: C_8  and  N_9
REMARK   10  A    between atoms: N_9  and  C_10
REMARK   11  A    between atoms: N_9  and  C_17
REMARK   12  A    between atoms: C_10  and  C_11
REMARK                            x       y       z     vdW  Elec       q    Type
REMARK                         _______ _______ _______ _____ _____    ______ ____
ROOT
ATOM      1  N   UNL     1      -1.570  -0.353   0.409  0.00  0.00    -0.324 N 
ENDROOT
BRANCH   1   2
ATOM      2  C   UNL     1      -1.855  -0.810  -0.927  0.00  0.00    +0.030 A 
ATOM      3  C   UNL     1      -1.531  -0.018  -2.041  0.00  0.00    +0.023 A 
ATOM      4  C   UNL     1      -1.806  -0.476  -3.332  0.00  0.00    +0.002 A 
ATOM      5  C   UNL     1      -2.408  -1.722  -3.522  0.00  0.00    +0.000 A 
ATOM      6  C   UNL     1      -2.736  -2.514  -2.418  0.00  0.00    +0.002 A 
ATOM      7  C   UNL     1      -2.463  -2.059  -1.125  0.00  0.00    +0.023 A 
ENDBRANCH   1   2
BRANCH   1   8
ATOM      8  C   UNL     1      -0.217   0.116   0.753  0.00  0.00    +0.126 C 
BRANCH   8   9
ATOM      9  C   UNL     1       0.851  -1.007   0.575  0.00  0.00    +0.099 C 
BRANCH   9  10
ATOM     10  N   UNL     1       1.159  -1.653   1.883  0.00  0.00    -0.296 NA
ATOM     11  C   UNL     1      -0.023  -2.276   2.498  0.00  0.00    +0.085 C 
ATOM     12  C   UNL     1       0.467  -3.417   3.377  0.00  0.00    +0.017 C 
ATOM     13  C   UNL     1       1.889  -3.693   2.932  0.00  0.00    +0.017 C 
ATOM     14  C   UNL     1       2.138  -2.745   1.773  0.00  0.00    +0.085 C 
ENDBRANCH   9  10
BRANCH   9  15
ATOM     15  C   UNL     1       2.128  -0.403  -0.058  0.00  0.00    +0.180 C 
BRANCH  15  16
ATOM     16  O   UNL     1       1.843   0.067  -1.367  0.00  0.00    -0.378 OA
BRANCH  16  17
ATOM     17  C   UNL     1       2.168   1.436  -1.545  0.00  0.00    +0.162 C 
BRANCH  17  19
ATOM     18  C   UNL     1       4.691   1.109  -1.503  0.00  0.00    +0.009 C 
ATOM     19  C   UNL     1       3.489   1.595  -2.322  0.00  0.00    +0.009 C 
ATOM     20  C   UNL     1       3.692   3.057  -2.733  0.00  0.00    +0.009 C 
ENDBRANCH  17  19
ENDBRANCH  16  17
ENDBRANCH  15  16
ENDBRANCH   9  15
ENDBRANCH   8   9
ENDBRANCH   1   8
BRANCH   1  21
ATOM     21  C   UNL     1      -2.690  -0.080   1.317  0.00  0.00    +0.140 C 
BRANCH  21  22
ATOM     22  C   UNL     1      -3.078   1.371   1.232  0.00  0.00    -0.030 A 
ATOM     23  C   UNL     1      -3.836   1.835   0.143  0.00  0.00    +0.005 A 
ATOM     24  C   UNL     1      -4.148   3.193   0.031  0.00  0.00    +0.000 A 
ATOM     25  C   UNL     1      -3.704   4.096   1.002  0.00  0.00    +0.000 A 
ATOM     26  C   UNL     1      -2.943   3.644   2.085  0.00  0.00    +0.000 A 
ATOM     27  C   UNL     1      -2.626   2.287   2.199  0.00  0.00    +0.005 A 
ENDBRANCH  21  22
ENDBRANCH   1  21
TORSDOF 10
