REMARK  Name = 
REMARK  5 active torsions:
REMARK  status: ('A' for Active; 'I' for Inactive)
REMARK    1  A    between atoms: N_1  and  C_2
REMARK    2  A    between atoms: N_7  and  C_9
REMARK    3  A    between atoms: C_16  and  C_25
REMARK    4  A    between atoms: N_18  and  C_19
REMARK    5  A    between atoms: C_25  and  O_26
REMARK                            x       y       z     vdW  Elec       q    Type
REMARK                         _______ _______ _______ _____ _____    ______ ____
ROOT
ATOM      1  C   UNL     1      -0.533   0.228  -0.381  0.00  0.00    +0.086 A 
ATOM      2  C   UNL     1      -0.312   1.457  -1.003  0.00  0.00    +0.147 A 
ATOM      3  F   UNL     1      -1.352   2.287  -1.271  0.00  0.00    -0.203 F 
ATOM      4  C   UNL     1       0.968   1.823  -1.395  0.00  0.00    +0.054 A 
ATOM      5  C   UNL     1       2.070   0.997  -1.113  0.00  0.00    +0.050 A 
ATOM      6  C   UNL     1       3.355   1.351  -1.564  0.00  0.00    +0.203 A 
ATOM      7  O   UNL     1       3.519   2.415  -2.224  0.00  0.00    -0.286 OA
ATOM      8  C   UNL     1       4.449   0.514  -1.295  0.00  0.00    +0.122 A 
ATOM      9  C   UNL     1       4.239  -0.616  -0.494  0.00  0.00    +0.105 A 
ATOM     10  N   UNL     1       3.010  -0.913   0.026  0.00  0.00    -0.341 N 
ATOM     11  C   UNL     1       1.889  -0.209  -0.379  0.00  0.00    +0.074 A 
ATOM     12  C   UNL     1       0.549  -0.632  -0.104  0.00  0.00    +0.089 A 
ATOM     13 CL   UNL     1       0.132  -2.288   0.363  0.00  0.00    -0.079 Cl
ENDROOT
BRANCH   1  19
ATOM     14  C   UNL     1      -4.265  -0.562  -0.808  0.00  0.00    +0.068 C 
ATOM     15  C   UNL     1      -4.694   0.850  -0.340  0.00  0.00    +0.020 C 
ATOM     16  C   UNL     1      -4.553   1.043   1.178  0.00  0.00    +0.003 C 
ATOM     17  C   UNL     1      -3.099   1.143   1.649  0.00  0.00    +0.019 C 
ATOM     18  C   UNL     1      -2.293  -0.125   1.358  0.00  0.00    +0.105 C 
ATOM     19  N   UNL     1      -1.878  -0.159  -0.050  0.00  0.00    -0.325 N 
ATOM     20  C   UNL     1      -2.757  -0.617  -1.138  0.00  0.00    +0.123 C 
BRANCH  14  21
ATOM     21  N   UNL     1      -5.026  -0.931  -2.005  0.00  0.00    -0.326 NA
ATOM     22  H   UNL     1      -4.737  -1.893  -2.300  0.00  0.00    +0.119 HD
ATOM     23  H   UNL     1      -6.036  -1.010  -1.745  0.00  0.00    +0.119 HD
ENDBRANCH  14  21
ENDBRANCH   1  19
BRANCH  10  24
ATOM     24  C   UNL     1       2.971  -1.979   1.045  0.00  0.00    +0.087 C 
ATOM     25  C   UNL     1       2.445  -1.539   2.410  0.00  0.00    +0.027 C 
ATOM     26  C   UNL     1       3.929  -1.763   2.218  0.00  0.00    +0.027 C 
ENDBRANCH  10  24
BRANCH   8  27
ATOM     27  C   UNL     1       5.817   0.813  -1.803  0.00  0.00    +0.342 C 
ATOM     28  O   UNL     1       6.787   0.070  -1.491  0.00  0.00    -0.245 OA
BRANCH  27  29
ATOM     29  O   UNL     1       6.048   1.908  -2.631  0.00  0.00    -0.477 OA
ATOM     30  H   UNL     1       6.978   2.111  -2.978  0.00  0.00    +0.295 HD
ENDBRANCH  27  29
ENDBRANCH   8  27
TORSDOF 5
