REMARK  Name = 
REMARK  8 active torsions:
REMARK  status: ('A' for Active; 'I' for Inactive)
REMARK    1  A    between atoms: C_3  and  C_4
REMARK    2  A    between atoms: C_5  and  O_6
REMARK    3  A    between atoms: C_5  and  C_7
REMARK    4  A    between atoms: C_7  and  C_9
REMARK    5  A    between atoms: C_9  and  O_10
REMARK    6  A    between atoms: C_11  and  C_12
REMARK    7  A    between atoms: C_14  and  O_15
REMARK    8  A    between atoms: C_27  and  C_28
REMARK                            x       y       z     vdW  Elec       q    Type
REMARK                         _______ _______ _______ _____ _____    ______ ____
ROOT
ATOM      1  C   UNL     1       0.693  -0.229   0.889  0.00  0.00    +0.005 C 
ATOM      2  C   UNL     1       1.640   0.151   2.017  0.00  0.00    +0.011 C 
ATOM      3  C   UNL     1       3.027  -0.294   1.500  0.00  0.00    +0.026 C 
ATOM      4  C   UNL     1       4.132   0.672   1.957  0.00  0.00    +0.011 C 
ATOM      5  C   UNL     1       2.872  -0.545  -0.058  0.00  0.00    +0.134 C 
ATOM      6  C   UNL     1       1.474   0.099  -0.393  0.00  0.00    +0.010 C 
ATOM      7  C   UNL     1       1.615   1.641  -0.636  0.00  0.00    +0.015 C 
ATOM      8  C   UNL     1       0.714  -0.547  -1.587  0.00  0.00    +0.044 C 
ATOM      9  C   UNL     1      -0.778  -0.109  -1.669  0.00  0.00    +0.154 C 
ATOM     10  C   UNL     1      -1.547  -0.295  -0.309  0.00  0.00    +0.153 C 
ATOM     11  F   UNL     1      -1.590  -1.671  -0.097  0.00  0.00    -0.238 F 
ATOM     12  C   UNL     1      -0.752   0.330   0.900  0.00  0.00    +0.034 C 
ATOM     13  C   UNL     1      -1.445   0.001   2.241  0.00  0.00    +0.011 C 
ATOM     14  C   UNL     1      -2.894   0.484   2.260  0.00  0.00    +0.032 C 
ATOM     15  C   UNL     1      -3.636  -0.078   1.074  0.00  0.00    -0.053 C 
ATOM     16  C   UNL     1      -4.773  -0.765   1.272  0.00  0.00    +0.051 C 
ATOM     17  C   UNL     1      -5.490  -1.370   0.151  0.00  0.00    +0.179 C 
ATOM     18  O   UNL     1      -6.564  -1.996   0.349  0.00  0.00    -0.288 OA
ATOM     19  C   UNL     1      -4.943  -1.258  -1.198  0.00  0.00    +0.047 C 
ATOM     20  C   UNL     1      -3.820  -0.574  -1.420  0.00  0.00    -0.009 C 
ATOM     21  C   UNL     1      -3.059   0.183  -0.328  0.00  0.00    +0.044 C 
ATOM     22  C   UNL     1      -3.246   1.691  -0.630  0.00  0.00    +0.023 C 
ENDROOT
BRANCH   5  23
ATOM     23  O   UNL     1       2.767  -1.941  -0.258  0.00  0.00    -0.380 OA
ATOM     24  H   UNL     1       3.590  -2.372   0.092  0.00  0.00    +0.211 HD
ENDBRANCH   5  23
BRANCH   5  25
ATOM     25  C   UNL     1       4.022  -0.013  -0.942  0.00  0.00    +0.190 C 
ATOM     26  O   UNL     1       4.409   1.141  -0.833  0.00  0.00    -0.292 OA
BRANCH  25  27
ATOM     27  C   UNL     1       4.702  -0.883  -1.972  0.00  0.00    +0.233 C 
BRANCH  27  28
ATOM     28  O   UNL     1       3.775  -1.345  -2.914  0.00  0.00    -0.387 OA
ATOM     29  H   UNL     1       3.570  -0.577  -3.510  0.00  0.00    +0.210 HD
ENDBRANCH  27  28
ENDBRANCH  25  27
ENDBRANCH   5  25
BRANCH   9  30
ATOM     30  O   UNL     1      -0.869   1.209  -2.140  0.00  0.00    -0.389 OA
ATOM     31  H   UNL     1      -0.646   1.191  -3.107  0.00  0.00    +0.210 HD
ENDBRANCH   9  30
TORSDOF 5
