REMARK  Name = 
REMARK  3 active torsions:
REMARK  status: ('A' for Active; 'I' for Inactive)
REMARK    1  A    between atoms: N_1  and  C_2
REMARK    2  A    between atoms: C_2  and  C_3
REMARK    3  A    between atoms: C_3  and  C_4
REMARK                            x       y       z     vdW  Elec       q    Type
REMARK                         _______ _______ _______ _____ _____    ______ ____
ROOT
ATOM      1  C   UNL     1      -0.821  -0.126   0.018  0.00  0.00    +0.037 A 
ATOM      2  C   UNL     1      -1.612  -0.720   0.979  0.00  0.00    +0.044 A 
ATOM      3  C   UNL     1      -2.805  -0.027   0.912  0.00  0.00    +0.134 A 
ATOM      4  N   UNL     1      -2.720   0.934  -0.030  0.00  0.00    -0.182 NA
ATOM      5  N   UNL     1      -1.511   0.870  -0.564  0.00  0.00    -0.282 N 
ATOM      6  H   UNL     1      -1.164   1.510  -1.312  0.00  0.00    +0.189 HD
ENDROOT
BRANCH   1   7
ATOM      7  C   UNL     1       0.610  -0.454  -0.279  0.00  0.00    +0.069 C 
BRANCH   7   8
ATOM      8  C   UNL     1       1.547   0.403   0.581  0.00  0.00    +0.084 C 
BRANCH   8   9
ATOM      9  N   UNL     1       2.949   0.098   0.304  0.00  0.00    -0.330 NA
ATOM     10  H   UNL     1       3.118  -0.917   0.493  0.00  0.00    +0.118 HD
ATOM     11  H   UNL     1       3.137   0.269  -0.711  0.00  0.00    +0.118 HD
ENDBRANCH   8   9
ENDBRANCH   7   8
ENDBRANCH   1   7
TORSDOF 3
