REMARK  Name = 
REMARK  4 active torsions:
REMARK  status: ('A' for Active; 'I' for Inactive)
REMARK    1  A    between atoms: C_1  and  N_2
REMARK    2  A    between atoms: N_2  and  C_3
REMARK    3  A    between atoms: C_3  and  C_4
REMARK    4  A    between atoms: C_4  and  C_5
REMARK                            x       y       z     vdW  Elec       q    Type
REMARK                         _______ _______ _______ _____ _____    ______ ____
ROOT
ATOM      1  C   UNL     1       0.851  -0.215   0.696  0.00  0.00    +0.042 A 
ATOM      2  C   UNL     1       1.369   1.066   0.937  0.00  0.00    +0.023 A 
ATOM      3  C   UNL     1       2.528   1.472   0.272  0.00  0.00    +0.003 A 
ATOM      4  C   UNL     1       3.151   0.606  -0.628  0.00  0.00    +0.020 A 
ATOM      5  C   UNL     1       2.602  -0.659  -0.852  0.00  0.00    +0.111 A 
ATOM      6  N   UNL     1       1.473  -1.037  -0.194  0.00  0.00    -0.260 NA
ENDROOT
BRANCH   1   7
ATOM      7  C   UNL     1      -0.413  -0.670   1.370  0.00  0.00    +0.070 C 
BRANCH   7   8
ATOM      8  C   UNL     1      -1.654  -0.161   0.631  0.00  0.00    +0.087 C 
BRANCH   8  10
ATOM      9  C   UNL     1      -2.836  -0.141  -1.464  0.00  0.00    +0.101 C 
ATOM     10  N   UNL     1      -1.709  -0.715  -0.728  0.00  0.00    -0.319 NA
ATOM     11  H   UNL     1      -1.877  -1.746  -0.653  0.00  0.00    +0.122 HD
ENDBRANCH   8  10
ENDBRANCH   7   8
ENDBRANCH   1   7
TORSDOF 3
