REMARK  Name = 
REMARK  4 active torsions:
REMARK  status: ('A' for Active; 'I' for Inactive)
REMARK    1  A    between atoms: C_1  and  N_2
REMARK    2  A    between atoms: N_4  and  C_5
REMARK    3  A    between atoms: C_5  and  C_6
REMARK    4  A    between atoms: N_12  and  C_13
REMARK                            x       y       z     vdW  Elec       q    Type
REMARK                         _______ _______ _______ _____ _____    ______ ____
ROOT
ATOM      1  C   UNL     1      -3.761  -1.471   0.112  0.00  0.00    +0.142 C 
ATOM      2  N   UNL     1      -2.573  -1.028   0.834  0.00  0.00    -0.359 N 
ATOM      3  C   UNL     1      -1.739   0.054   0.383  0.00  0.00    +0.193 C 
ATOM      4  N   UNL     1      -0.320  -0.148   0.341  0.00  0.00    -0.352 N 
ATOM      5  N   UNL     1      -2.226   1.226   0.078  0.00  0.00    -0.256 NA
ATOM      6  C   UNL     1      -3.625   1.629   0.136  0.00  0.00    +0.174 C 
ATOM      7  H   UNL     1      -2.143  -1.717   1.492  0.00  0.00    +0.162 HD
ATOM      8  H   UNL     1       0.055  -1.088   0.606  0.00  0.00    +0.163 HD
ENDROOT
BRANCH   4   9
ATOM      9  C   UNL     1       0.604   0.910  -0.072  0.00  0.00    +0.151 C 
BRANCH   9  10
ATOM     10  C   UNL     1       2.025   0.419  -0.032  0.00  0.00    -0.028 A 
ATOM     11  C   UNL     1       2.778   0.525   1.150  0.00  0.00    +0.005 A 
ATOM     12  C   UNL     1       4.087   0.034   1.197  0.00  0.00    +0.000 A 
ATOM     13  C   UNL     1       4.647  -0.575   0.070  0.00  0.00    +0.000 A 
ATOM     14  C   UNL     1       3.898  -0.699  -1.103  0.00  0.00    +0.000 A 
ATOM     15  C   UNL     1       2.589  -0.209  -1.154  0.00  0.00    +0.005 A 
ENDBRANCH   9  10
ENDBRANCH   4   9
TORSDOF 2
