REMARK  Name = 
REMARK  8 active torsions:
REMARK  status: ('A' for Active; 'I' for Inactive)
REMARK    1  A    between atoms: C_1  and  C_2
REMARK    2  A    between atoms: C_2  and  C_3
REMARK    3  A    between atoms: C_2  and  O_8
REMARK    4  A    between atoms: C_3  and  N_4
REMARK    5  A    between atoms: N_4  and  C_5
REMARK    6  A    between atoms: N_4  and  C_6
REMARK    7  A    between atoms: N_4  and  C_7
REMARK    8  A    between atoms: O_8  and  C_9
REMARK                            x       y       z     vdW  Elec       q    Type
REMARK                         _______ _______ _______ _____ _____    ______ ____
ROOT
ATOM      1  C   UNL     1       0.532   1.105  -1.965  0.00  0.00    +0.050 C 
ATOM      2  C   UNL     1       0.933   0.372  -0.682  0.00  0.00    +0.159 C 
ENDROOT
BRANCH   2   3
ATOM      3  C   UNL     1      -0.132   0.477   0.455  0.00  0.00    -0.031 C 
BRANCH   3   4
ATOM      4  N   UNL     1      -1.438  -0.240   0.263  0.00  0.00    +0.377 N 
ATOM      5  C   UNL     1      -1.260  -1.592  -0.317  0.00  0.00    -0.093 C 
ATOM      6  C   UNL     1      -2.071  -0.395   1.599  0.00  0.00    -0.093 C 
ATOM      7  C   UNL     1      -2.373   0.547  -0.580  0.00  0.00    -0.093 C 
ENDBRANCH   3   4
ENDBRANCH   2   3
BRANCH   2   8
ATOM      8  O   UNL     1       2.156   0.952  -0.220  0.00  0.00    -0.449 OA
BRANCH   8   9
ATOM      9  C   UNL     1       3.049   0.301   0.639  0.00  0.00    +0.398 C 
ATOM     10  N   UNL     1       4.222   0.982   1.078  0.00  0.00    -0.295 N 
ATOM     11  O   UNL     1       2.833  -0.880   1.024  0.00  0.00    -0.227 OA
ATOM     12  H   UNL     1       4.410   1.959   0.762  0.00  0.00    +0.148 HD
ATOM     13  H   UNL     1       4.900   0.511   1.717  0.00  0.00    +0.148 HD
ENDBRANCH   8   9
ENDBRANCH   2   8
TORSDOF 4
