REMARK  Name = 
REMARK  14 active torsions:
REMARK  status: ('A' for Active; 'I' for Inactive)
REMARK    1  A    between atoms: C_1  and  O_2
REMARK    2  A    between atoms: O_2  and  C_3
REMARK    3  A    between atoms: C_4  and  O_5
REMARK    4  A    between atoms: O_5  and  C_6
REMARK    5  A    between atoms: C_8  and  C_9
REMARK    6  A    between atoms: C_9  and  C_10
REMARK    7  A    between atoms: C_10  and  N_11
REMARK    8  A    between atoms: N_11  and  C_12
REMARK    9  A    between atoms: C_12  and  C_13
REMARK   10  A    between atoms: C_13  and  O_14
REMARK   11  A    between atoms: C_13  and  C_15
REMARK   12  A    between atoms: C_15  and  O_16
REMARK   13  A    between atoms: O_16  and  C_17
REMARK   14  A    between atoms: C_21  and  C_22
REMARK                            x       y       z     vdW  Elec       q    Type
REMARK                         _______ _______ _______ _____ _____    ______ ____
ROOT
ATOM      1  N   UNL     1      -0.940  -0.961  -1.228  0.00  0.00    -0.313 NA
ATOM      2  H   UNL     1      -1.049  -1.956  -1.536  0.00  0.00    +0.122 HD
ENDROOT
BRANCH   1   3
ATOM      3  C   UNL     1      -1.230  -0.065  -2.357  0.00  0.00    +0.085 C 
BRANCH   3   4
ATOM      4  C   UNL     1      -2.726  -0.095  -2.688  0.00  0.00    +0.050 C 
BRANCH   4   8
ATOM      5  C   UNL     1      -5.056   1.257   0.696  0.00  0.00    +0.161 A 
ATOM      6  C   UNL     1      -4.857  -0.117   0.489  0.00  0.00    +0.162 A 
ATOM      7  C   UNL     1      -4.104  -0.551  -0.620  0.00  0.00    +0.053 A 
ATOM      8  C   UNL     1      -3.559   0.376  -1.522  0.00  0.00    -0.042 A 
ATOM      9  C   UNL     1      -3.752   1.746  -1.300  0.00  0.00    +0.007 A 
ATOM     10  C   UNL     1      -4.496   2.185  -0.204  0.00  0.00    +0.049 A 
BRANCH   5  12
ATOM     11  C   UNL     1      -6.120   3.015   2.127  0.00  0.00    +0.277 C 
ATOM     12  O   UNL     1      -5.814   1.661   1.808  0.00  0.00    -0.491 OA
ENDBRANCH   5  12
BRANCH   6  13
ATOM     13  O   UNL     1      -5.423  -1.019   1.405  0.00  0.00    -0.491 OA
ATOM     14  C   UNL     1      -5.306  -2.436   1.320  0.00  0.00    +0.277 C 
ENDBRANCH   6  13
ENDBRANCH   4   8
ENDBRANCH   3   4
ENDBRANCH   1   3
BRANCH   1  15
ATOM     15  C   UNL     1       0.402  -0.745  -0.657  0.00  0.00    +0.115 C 
BRANCH  15  16
ATOM     16  C   UNL     1       1.511  -1.526  -1.406  0.00  0.00    +0.166 C 
BRANCH  16  17
ATOM     17  O   UNL     1       1.685  -1.056  -2.719  0.00  0.00    -0.387 OA
ATOM     18  H   UNL     1       1.881  -0.081  -2.669  0.00  0.00    +0.210 HD
ENDBRANCH  16  17
BRANCH  16  19
ATOM     19  C   UNL     1       2.845  -1.478  -0.645  0.00  0.00    +0.261 C 
BRANCH  19  20
ATOM     20  O   UNL     1       3.292  -0.128  -0.507  0.00  0.00    -0.489 OA
BRANCH  20  21
ATOM     21  C   UNL     1       4.488   0.254   0.118  0.00  0.00    +0.121 A 
ATOM     22  C   UNL     1       4.804   1.617   0.166  0.00  0.00    +0.045 A 
ATOM     23  C   UNL     1       5.990   2.049   0.764  0.00  0.00    +0.004 A 
ATOM     24  C   UNL     1       6.869   1.121   1.330  0.00  0.00    +0.003 A 
ATOM     25  C   UNL     1       6.558  -0.248   1.311  0.00  0.00    -0.047 A 
ATOM     26  C   UNL     1       7.513  -1.251   1.890  0.00  0.00    +0.044 C 
ATOM     27  C   UNL     1       5.374  -0.681   0.692  0.00  0.00    +0.049 A 
ENDBRANCH  20  21
ENDBRANCH  19  20
ENDBRANCH  16  19
ENDBRANCH  15  16
ENDBRANCH   1  15
TORSDOF 11
