REMARK  Name = 
REMARK  9 active torsions:
REMARK  status: ('A' for Active; 'I' for Inactive)
REMARK    1  A    between atoms: C_1  and  C_2
REMARK    2  A    between atoms: C_7  and  C_8
REMARK    3  A    between atoms: C_8  and  C_10
REMARK    4  A    between atoms: C_13  and  C_16
REMARK    5  A    between atoms: C_16  and  O_17
REMARK    6  A    between atoms: C_19  and  C_20
REMARK    7  A    between atoms: C_19  and  C_21
REMARK    8  A    between atoms: C_24  and  C_25
REMARK    9  A    between atoms: C_24  and  C_26
REMARK                            x       y       z     vdW  Elec       q    Type
REMARK                         _______ _______ _______ _____ _____    ______ ____
ROOT
ATOM      1  C   UNL     1       0.619  -1.528  -3.391  0.00  0.00    +0.044 C 
ATOM      2  C   UNL     1      -0.053  -1.033  -2.136  0.00  0.00    -0.042 A 
ATOM      3  C   UNL     1      -1.293  -0.390  -2.240  0.00  0.00    +0.008 A 
ATOM      4  C   UNL     1      -1.952   0.148  -1.113  0.00  0.00    -0.038 A 
ATOM      5  C   UNL     1      -1.387  -0.071   0.176  0.00  0.00    -0.037 A 
ATOM      6  C   UNL     1      -0.127  -0.700   0.264  0.00  0.00    +0.013 A 
ATOM      7  C   UNL     1       0.535  -1.195  -0.865  0.00  0.00    -0.015 A 
ATOM      8  C   UNL     1      -2.060   0.423   1.467  0.00  0.00    -0.010 C 
ATOM      9  C   UNL     1      -1.270   1.636   2.011  0.00  0.00    +0.016 C 
ATOM     10  C   UNL     1      -2.067  -0.689   2.546  0.00  0.00    +0.016 C 
ATOM     11  C   UNL     1      -3.538   0.818   1.224  0.00  0.00    +0.012 C 
ATOM     12  C   UNL     1      -3.712   1.652  -0.040  0.00  0.00    +0.012 C 
ATOM     13  C   UNL     1      -3.288   0.881  -1.314  0.00  0.00    -0.010 C 
ATOM     14  C   UNL     1      -3.177   1.927  -2.452  0.00  0.00    +0.016 C 
ATOM     15  C   UNL     1      -4.375  -0.151  -1.695  0.00  0.00    +0.016 C 
ENDROOT
BRANCH   7  16
ATOM     16  C   UNL     1       1.850  -1.857  -0.674  0.00  0.00    -0.018 C 
ATOM     17  C   UNL     1       2.015  -3.104  -1.129  0.00  0.00    +0.018 C 
BRANCH  16  18
ATOM     18  C   UNL     1       2.935  -1.135   0.049  0.00  0.00    -0.018 A 
ATOM     19  C   UNL     1       3.114   0.243  -0.156  0.00  0.00    +0.009 A 
ATOM     20  C   UNL     1       4.112   0.941   0.528  0.00  0.00    +0.015 A 
ATOM     21  C   UNL     1       4.950   0.276   1.439  0.00  0.00    +0.059 A 
ATOM     22  C   UNL     1       4.766  -1.101   1.653  0.00  0.00    +0.015 A 
ATOM     23  C   UNL     1       3.768  -1.798   0.968  0.00  0.00    +0.009 A 
BRANCH  21  24
ATOM     24  C   UNL     1       6.005   1.019   2.163  0.00  0.00    +0.337 C 
ATOM     25  O   UNL     1       6.759   0.424   2.981  0.00  0.00    -0.245 OA
BRANCH  24  26
ATOM     26  O   UNL     1       6.177   2.384   1.947  0.00  0.00    -0.477 OA
ATOM     27  H   UNL     1       6.896   2.902   2.438  0.00  0.00    +0.295 HD
ENDBRANCH  24  26
ENDBRANCH  21  24
ENDBRANCH  16  18
ENDBRANCH   7  16
TORSDOF 4
