REMARK  Name = 
REMARK  10 active torsions:
REMARK  status: ('A' for Active; 'I' for Inactive)
REMARK    1  A    between atoms: C_1  and  C_2
REMARK    2  A    between atoms: C_2  and  C_3
REMARK    3  A    between atoms: C_2  and  O_4
REMARK    4  A    between atoms: C_2  and  C_23
REMARK    5  A    between atoms: O_4  and  C_5
REMARK    6  A    between atoms: C_8  and  C_9
REMARK    7  A    between atoms: C_9  and  C_10
REMARK    8  A    between atoms: C_10  and  N_11
REMARK    9  A    between atoms: C_12  and  C_14
REMARK   10  A    between atoms: C_23  and  O_24
REMARK                            x       y       z     vdW  Elec       q    Type
REMARK                         _______ _______ _______ _____ _____    ______ ____
ROOT
ATOM      1  C   UNL     1      -3.192  -0.245  -0.667  0.00  0.00    +0.122 A 
ATOM      2  C   UNL     1      -2.607  -1.458  -0.287  0.00  0.00    +0.046 A 
ATOM      3  C   UNL     1      -1.258  -1.508   0.077  0.00  0.00    +0.007 A 
ATOM      4  C   UNL     1      -0.479  -0.341   0.064  0.00  0.00    -0.046 A 
ATOM      5  C   UNL     1      -1.059   0.870  -0.348  0.00  0.00    +0.007 A 
ATOM      6  C   UNL     1      -2.407   0.916  -0.715  0.00  0.00    +0.046 A 
ENDROOT
BRANCH   1   7
ATOM      7  O   UNL     1      -4.540  -0.214  -1.046  0.00  0.00    -0.475 OA
BRANCH   7   9
ATOM      8  C   UNL     1      -5.446   1.756   0.086  0.00  0.00    +0.067 C 
ATOM      9  C   UNL     1      -5.607   0.249  -0.204  0.00  0.00    +0.200 C 
ATOM     10  C   UNL     1      -6.923   0.028  -0.961  0.00  0.00    +0.067 C 
BRANCH   9  11
ATOM     11  C   UNL     1      -5.649  -0.563   1.074  0.00  0.00    +0.348 C 
ATOM     12  O   UNL     1      -5.807  -0.005   2.194  0.00  0.00    -0.247 OA
BRANCH  11  13
ATOM     13  O   UNL     1      -5.559  -1.950   1.008  0.00  0.00    -0.478 OA
ATOM     14  H   UNL     1      -5.599  -2.513   1.848  0.00  0.00    +0.295 HD
ENDBRANCH  11  13
ENDBRANCH   9  11
ENDBRANCH   7   9
ENDBRANCH   1   7
BRANCH   4  15
ATOM     15  C   UNL     1       0.982  -0.399   0.420  0.00  0.00    +0.054 C 
BRANCH  15  16
ATOM     16  C   UNL     1       1.835  -0.611  -0.834  0.00  0.00    +0.109 C 
BRANCH  16  17
ATOM     17  N   UNL     1       3.252  -0.689  -0.481  0.00  0.00    -0.311 N 
ATOM     18  C   UNL     1       4.029   0.478  -0.162  0.00  0.00    +0.244 C 
ATOM     19  O   UNL     1       3.470   1.609  -0.127  0.00  0.00    -0.270 OA
ATOM     20  H   UNL     1       3.688  -1.635  -0.443  0.00  0.00    +0.149 HD
BRANCH  18  21
ATOM     21  C   UNL     1       5.476   0.378   0.148  0.00  0.00    +0.037 A 
ATOM     22  C   UNL     1       6.086   1.348   0.965  0.00  0.00    +0.014 A 
ATOM     23  C   UNL     1       7.448   1.265   1.269  0.00  0.00    +0.021 A 
ATOM     24  C   UNL     1       8.219   0.218   0.757  0.00  0.00    +0.041 A 
ATOM     25 CL   UNL     1       9.927   0.116   1.141  0.00  0.00    -0.084 Cl
ATOM     26  C   UNL     1       7.627  -0.744  -0.067  0.00  0.00    +0.021 A 
ATOM     27  C   UNL     1       6.265  -0.666  -0.373  0.00  0.00    +0.014 A 
ENDBRANCH  18  21
ENDBRANCH  16  17
ENDBRANCH  15  16
ENDBRANCH   4  15
TORSDOF 8
