REMARK  Name = 
REMARK  9 active torsions:
REMARK  status: ('A' for Active; 'I' for Inactive)
REMARK    1  A    between atoms: C_1  and  C_2
REMARK    2  A    between atoms: C_2  and  O_3
REMARK    3  A    between atoms: C_2  and  C_4
REMARK    4  A    between atoms: C_2  and  C_15
REMARK    5  A    between atoms: C_4  and  S_5
REMARK    6  A    between atoms: S_5  and  C_8
REMARK    7  A    between atoms: N_17  and  C_18
REMARK    8  A    between atoms: C_20  and  C_26
REMARK    9  A    between atoms: C_21  and  C_24
REMARK                            x       y       z     vdW  Elec       q    Type
REMARK                         _______ _______ _______ _____ _____    ______ ____
ROOT
ATOM      1  C   UNL     1       0.726  -1.337   0.604  0.00  0.00    +0.250 C 
ATOM      2  O   UNL     1       1.161  -1.028   1.748  0.00  0.00    -0.272 OA
ATOM      3  N   UNL     1       1.243  -0.674  -0.564  0.00  0.00    -0.283 N 
ATOM      4  H   UNL     1       0.717  -0.775  -1.461  0.00  0.00    +0.155 HD
ENDROOT
BRANCH   3   5
ATOM      5  C   UNL     1       2.359   0.231  -0.543  0.00  0.00    +0.034 A 
ATOM      6  C   UNL     1       3.486  -0.017   0.259  0.00  0.00    +0.037 A 
ATOM      7  C   UNL     1       4.583   0.869   0.260  0.00  0.00    +0.074 A 
ATOM      8  C   UNL     1       4.540   2.007  -0.581  0.00  0.00    +0.064 A 
ATOM      9  C   UNL     1       3.425   2.235  -1.396  0.00  0.00    +0.021 A 
ATOM     10  C   UNL     1       2.347   1.350  -1.382  0.00  0.00    +0.024 A 
BRANCH   7  11
ATOM     11  C   UNL     1       5.790   0.593   1.134  0.00  0.00    +0.419 C 
ATOM     12  F   UNL     1       6.911   0.434   0.340  0.00  0.00    -0.166 F 
ATOM     13  F   UNL     1       5.992   1.657   1.996  0.00  0.00    -0.166 F 
ATOM     14  F   UNL     1       5.629  -0.554   1.893  0.00  0.00    -0.166 F 
ENDBRANCH   7  11
BRANCH   8  15
ATOM     15  C   UNL     1       5.633   2.951  -0.632  0.00  0.00    +0.100 C 
ATOM     16  N   UNL     1       6.507   3.707  -0.674  0.00  0.00    -0.191 NA
ENDBRANCH   8  15
ENDBRANCH   3   5
BRANCH   1  18
ATOM     17  C   UNL     1      -0.566  -3.174   1.761  0.00  0.00    +0.053 C 
ATOM     18  C   UNL     1      -0.388  -2.358   0.460  0.00  0.00    +0.158 C 
BRANCH  18  19
ATOM     19  O   UNL     1      -0.004  -3.243  -0.568  0.00  0.00    -0.378 OA
ATOM     20  H   UNL     1      -0.724  -3.918  -0.683  0.00  0.00    +0.211 HD
ENDBRANCH  18  19
BRANCH  18  21
ATOM     21  C   UNL     1      -1.715  -1.660   0.047  0.00  0.00    +0.215 C 
BRANCH  21  22
ATOM     22  S   UNL     1      -2.355  -0.455   1.216  0.00  0.00    +0.000 S 
ATOM     23  O   UNL     1      -1.290   0.517   1.640  0.00  0.00    -0.169 OA
ATOM     24  O   UNL     1      -2.894  -1.147   2.437  0.00  0.00    -0.169 OA
BRANCH  22  25
ATOM     25  C   UNL     1      -3.656   0.433   0.430  0.00  0.00    +0.088 A 
ATOM     26  C   UNL     1      -4.988   0.019   0.578  0.00  0.00    +0.030 A 
ATOM     27  C   UNL     1      -6.016   0.718  -0.063  0.00  0.00    +0.040 A 
ATOM     28  C   UNL     1      -5.718   1.829  -0.858  0.00  0.00    +0.124 A 
ATOM     29  F   UNL     1      -6.715   2.505  -1.480  0.00  0.00    -0.205 F 
ATOM     30  C   UNL     1      -4.390   2.239  -1.016  0.00  0.00    +0.040 A 
ATOM     31  C   UNL     1      -3.361   1.542  -0.376  0.00  0.00    +0.030 A 
ENDBRANCH  22  25
ENDBRANCH  21  22
ENDBRANCH  18  21
ENDBRANCH   1  18
TORSDOF 8
