REMARK  Name = 
REMARK  4 active torsions:
REMARK  status: ('A' for Active; 'I' for Inactive)
REMARK    1  A    between atoms: N_3  and  C_6
REMARK    2  A    between atoms: C_6  and  C_7
REMARK    3  A    between atoms: C_6  and  C_13
REMARK    4  A    between atoms: C_16  and  C_19
REMARK                            x       y       z     vdW  Elec       q    Type
REMARK                         _______ _______ _______ _____ _____    ______ ____
ROOT
ATOM      1  C   UNL     1      -2.033  -0.819  -0.355  0.00  0.00    +0.148 C 
ENDROOT
BRANCH   1   2
ATOM      2  C   UNL     1      -2.789   0.486  -0.548  0.00  0.00    -0.020 A 
ATOM      3  C   UNL     1      -2.421   1.664   0.134  0.00  0.00    +0.006 A 
ATOM      4  C   UNL     1      -3.156   2.841  -0.038  0.00  0.00    +0.000 A 
ATOM      5  C   UNL     1      -4.271   2.855  -0.879  0.00  0.00    +0.000 A 
ATOM      6  C   UNL     1      -4.657   1.690  -1.546  0.00  0.00    +0.000 A 
ATOM      7  C   UNL     1      -3.926   0.510  -1.377  0.00  0.00    +0.006 A 
ENDBRANCH   1   2
BRANCH   1   8
ATOM      8  C   UNL     1      -0.529  -0.609  -0.283  0.00  0.00    -0.020 A 
ATOM      9  C   UNL     1       0.199  -0.453  -1.474  0.00  0.00    +0.006 A 
ATOM     10  C   UNL     1       1.577  -0.225  -1.442  0.00  0.00    +0.009 A 
ATOM     11  C   UNL     1       2.258  -0.138  -0.216  0.00  0.00    -0.018 A 
ATOM     12  C   UNL     1       1.529  -0.278   0.977  0.00  0.00    +0.009 A 
ATOM     13  C   UNL     1       0.150  -0.505   0.945  0.00  0.00    +0.006 A 
BRANCH  11  14
ATOM     14  C   UNL     1       3.723   0.106  -0.181  0.00  0.00    -0.018 A 
ATOM     15  C   UNL     1       4.319   1.020  -1.071  0.00  0.00    +0.008 A 
ATOM     16  C   UNL     1       5.698   1.247  -1.036  0.00  0.00    +0.001 A 
ATOM     17  C   UNL     1       6.497   0.566  -0.114  0.00  0.00    +0.000 A 
ATOM     18  C   UNL     1       5.918  -0.343   0.773  0.00  0.00    +0.001 A 
ATOM     19  C   UNL     1       4.540  -0.574   0.743  0.00  0.00    +0.008 A 
ENDBRANCH  11  14
ENDBRANCH   1   8
BRANCH   1  22
ATOM     20  C   UNL     1      -2.995  -3.221   2.191  0.00  0.00    +0.130 A 
ATOM     21  C   UNL     1      -2.472  -2.908   0.958  0.00  0.00    +0.107 A 
ATOM     22  N   UNL     1      -2.539  -1.574   0.802  0.00  0.00    -0.325 N 
ATOM     23  C   UNL     1      -3.087  -1.107   1.945  0.00  0.00    +0.200 A 
ATOM     24  N   UNL     1      -3.383  -2.092   2.818  0.00  0.00    -0.244 NA
ENDBRANCH   1  22
TORSDOF 4
