REMARK  Name = 
REMARK  16 active torsions:
REMARK  status: ('A' for Active; 'I' for Inactive)
REMARK    1  A    between atoms: C_1  and  C_2
REMARK    2  A    between atoms: C_2  and  N_3
REMARK    3  A    between atoms: C_4  and  C_6
REMARK    4  A    between atoms: C_6  and  C_7
REMARK    5  A    between atoms: C_7  and  C_8
REMARK    6  A    between atoms: C_8  and  C_9
REMARK    7  A    between atoms: C_10  and  C_11
REMARK    8  A    between atoms: C_11  and  C_12
REMARK    9  A    between atoms: C_13  and  O_14
REMARK   10  A    between atoms: C_16  and  O_17
REMARK   11  A    between atoms: C_18  and  C_19
REMARK   12  A    between atoms: C_20  and  C_21
REMARK   13  A    between atoms: C_21  and  O_22
REMARK   14  A    between atoms: C_21  and  C_23
REMARK   15  A    between atoms: C_23  and  C_24
REMARK   16  A    between atoms: C_24  and  C_25
REMARK                            x       y       z     vdW  Elec       q    Type
REMARK                         _______ _______ _______ _____ _____    ______ ____
ROOT
ATOM      1  C   UNL     1       0.161   1.317   0.879  0.00  0.00    +0.031 C 
ATOM      2  C   UNL     1       0.664   2.593   1.593  0.00  0.00    +0.121 C 
ATOM      3  C   UNL     1       1.381   2.117   2.845  0.00  0.00    +0.063 C 
ATOM      4  C   UNL     1       2.011   0.792   2.448  0.00  0.00    +0.124 C 
ATOM      5  C   UNL     1       1.018   0.159   1.462  0.00  0.00    +0.046 C 
ENDROOT
BRANCH   2   6
ATOM      6  O   UNL     1      -0.364   3.487   1.935  0.00  0.00    -0.391 OA
ATOM      7  H   UNL     1      -0.572   4.006   1.116  0.00  0.00    +0.210 HD
ENDBRANCH   2   6
BRANCH   4   8
ATOM      8  O   UNL     1       2.198  -0.038   3.565  0.00  0.00    -0.391 OA
ATOM      9  H   UNL     1       2.913   0.380   4.115  0.00  0.00    +0.210 HD
ENDBRANCH   4   8
BRANCH   5  10
ATOM     10  C   UNL     1       1.722  -0.664   0.402  0.00  0.00    -0.022 C 
ATOM     11  C   UNL     1       2.538  -0.117  -0.513  0.00  0.00    -0.000 C 
BRANCH  11  12
ATOM     12  C   UNL     1       3.268  -0.975  -1.522  0.00  0.00    +0.137 C 
BRANCH  12  13
ATOM     13  O   UNL     1       2.349  -1.683  -2.318  0.00  0.00    -0.388 OA
ATOM     14  H   UNL     1       1.770  -1.015  -2.775  0.00  0.00    +0.210 HD
ENDBRANCH  12  13
BRANCH  12  15
ATOM     15  C   UNL     1       4.215  -0.150  -2.422  0.00  0.00    +0.040 C 
BRANCH  15  16
ATOM     16  C   UNL     1       5.349   0.564  -1.663  0.00  0.00    +0.038 C 
BRANCH  16  17
ATOM     17  C   UNL     1       6.267  -0.402  -0.960  0.00  0.00    -0.047 A 
ATOM     18  C   UNL     1       7.269  -1.077  -1.677  0.00  0.00    +0.003 A 
ATOM     19  C   UNL     1       8.115  -1.979  -1.024  0.00  0.00    +0.000 A 
ATOM     20  C   UNL     1       7.962  -2.217   0.346  0.00  0.00    +0.000 A 
ATOM     21  C   UNL     1       6.963  -1.555   1.064  0.00  0.00    +0.000 A 
ATOM     22  C   UNL     1       6.116  -0.651   0.415  0.00  0.00    +0.003 A 
ENDBRANCH  16  17
ENDBRANCH  15  16
ENDBRANCH  12  15
ENDBRANCH  11  12
ENDBRANCH   5  10
BRANCH   1  23
ATOM     23  C   UNL     1      -1.358   1.073   1.065  0.00  0.00    +0.033 C 
BRANCH  23  25
ATOM     24  C   UNL     1      -3.137  -0.456   0.145  0.00  0.00    -0.031 C 
ATOM     25  C   UNL     1      -1.839  -0.132   0.290  0.00  0.00    -0.031 C 
BRANCH  24  26
ATOM     26  C   UNL     1      -4.287   0.386   0.645  0.00  0.00    +0.027 C 
BRANCH  26  27
ATOM     27  C   UNL     1      -4.669   1.485  -0.364  0.00  0.00    +0.013 C 
BRANCH  27  28
ATOM     28  C   UNL     1      -5.253   0.937  -1.678  0.00  0.00    +0.096 C 
BRANCH  28  30
ATOM     29  N   UNL     1      -6.944  -0.927  -1.272  0.00  0.00    -0.316 N 
ATOM     30  C   UNL     1      -6.667   0.464  -1.500  0.00  0.00    +0.213 C 
ATOM     31  O   UNL     1      -7.607   1.306  -1.529  0.00  0.00    -0.276 OA
ATOM     32  H   UNL     1      -6.148  -1.597  -1.205  0.00  0.00    +0.149 HD
BRANCH  29  34
ATOM     33  C   UNL     1      -8.867  -1.090   0.252  0.00  0.00    +0.024 C 
ATOM     34  C   UNL     1      -8.305  -1.438  -1.123  0.00  0.00    +0.101 C 
ENDBRANCH  29  34
ENDBRANCH  28  30
ENDBRANCH  27  28
ENDBRANCH  26  27
ENDBRANCH  24  26
ENDBRANCH  23  25
ENDBRANCH   1  23
TORSDOF 15
