REMARK  Name = 
REMARK  6 active torsions:
REMARK  status: ('A' for Active; 'I' for Inactive)
REMARK    1  A    between atoms: C_4  and  C_5
REMARK    2  A    between atoms: C_5  and  C_6
REMARK    3  A    between atoms: C_6  and  C_7
REMARK    4  A    between atoms: C_7  and  C_8
REMARK    5  A    between atoms: C_8  and  C_9
REMARK    6  A    between atoms: C_9  and  O_10
REMARK                            x       y       z     vdW  Elec       q    Type
REMARK                         _______ _______ _______ _____ _____    ______ ____
ROOT
ATOM      1  C   UNL     1      -2.687   0.010  -2.223  0.00  0.00    +0.105 C 
ATOM      2  C   UNL     1      -3.217   1.050  -1.236  0.00  0.00    +0.093 C 
ATOM      3  S   UNL     1      -2.322   0.851   0.329  0.00  0.00    -0.154 S 
ATOM      4  C   UNL     1      -0.815   0.486  -0.621  0.00  0.00    +0.069 C 
ATOM      5  C   UNL     1      -1.238  -0.386  -1.815  0.00  0.00    +0.108 C 
ATOM      6  N   UNL     1      -1.306  -1.807  -1.473  0.00  0.00    -0.294 N 
ATOM      7  C   UNL     1      -2.623  -2.247  -1.697  0.00  0.00    +0.300 C 
ATOM      8  O   UNL     1      -2.998  -3.436  -1.530  0.00  0.00    -0.253 OA
ATOM      9  N   UNL     1      -3.473  -1.217  -2.139  0.00  0.00    -0.294 N 
ATOM     10  H   UNL     1      -0.497  -2.423  -1.232  0.00  0.00    +0.151 HD
ATOM     11  H   UNL     1      -4.487  -1.317  -2.369  0.00  0.00    +0.151 HD
ENDROOT
BRANCH   4  12
ATOM     12  C   UNL     1       0.275  -0.154   0.260  0.00  0.00    +0.016 C 
BRANCH  12  13
ATOM     13  C   UNL     1       0.897   0.864   1.230  0.00  0.00    +0.002 C 
BRANCH  13  14
ATOM     14  C   UNL     1       1.881   0.217   2.223  0.00  0.00    +0.011 C 
BRANCH  14  15
ATOM     15  C   UNL     1       3.148  -0.361   1.573  0.00  0.00    +0.120 C 
BRANCH  15  16
ATOM     16  C   UNL     1       3.957   0.695   0.886  0.00  0.00    +0.305 C 
ATOM     17  O   UNL     1       3.932   0.793  -0.370  0.00  0.00    -0.251 OA
BRANCH  16  18
ATOM     18  O   UNL     1       4.714   1.588   1.639  0.00  0.00    -0.481 OA
ATOM     19  H   UNL     1       5.257   2.316   1.190  0.00  0.00    +0.295 HD
ENDBRANCH  16  18
ENDBRANCH  15  16
ENDBRANCH  14  15
ENDBRANCH  13  14
ENDBRANCH  12  13
ENDBRANCH   4  12
TORSDOF 6
