REMARK  Name = 
REMARK  6 active torsions:
REMARK  status: ('A' for Active; 'I' for Inactive)
REMARK    1  A    between atoms: O_1  and  C_2
REMARK    2  A    between atoms: C_2  and  C_3
REMARK    3  A    between atoms: C_2  and  C_11
REMARK    4  A    between atoms: C_2  and  C_18
REMARK    5  A    between atoms: C_3  and  C_4
REMARK    6  A    between atoms: C_4  and  N_5
REMARK                            x       y       z     vdW  Elec       q    Type
REMARK                         _______ _______ _______ _____ _____    ______ ____
ROOT
ATOM      1  C   UNL     1      -1.258   0.062  -1.018  0.00  0.00    +0.095 C 
ENDROOT
BRANCH   1   2
ATOM      2  C   UNL     1      -2.421  -0.986  -0.796  0.00  0.00    +0.033 C 
ATOM      3  C   UNL     1      -2.264  -2.324  -1.578  0.00  0.00    +0.015 C 
ATOM      4  C   UNL     1      -2.641  -3.379  -0.515  0.00  0.00    +0.012 C 
ATOM      5  C   UNL     1      -3.696  -2.646   0.293  0.00  0.00    +0.015 C 
ATOM      6  C   UNL     1      -2.770  -1.490   0.637  0.00  0.00    +0.018 C 
ATOM      7  C   UNL     1      -1.620  -2.284   1.203  0.00  0.00    -0.027 C 
ATOM      8  C   UNL     1      -1.532  -3.411   0.498  0.00  0.00    -0.027 C 
ENDBRANCH   1   2
BRANCH   1   9
ATOM      9  C   UNL     1      -1.675   1.423  -0.424  0.00  0.00    -0.016 A 
ATOM     10  C   UNL     1      -1.742   1.611   0.976  0.00  0.00    +0.006 A 
ATOM     11  C   UNL     1      -2.122   2.841   1.518  0.00  0.00    +0.000 A 
ATOM     12  C   UNL     1      -2.445   3.908   0.681  0.00  0.00    +0.000 A 
ATOM     13  C   UNL     1      -2.387   3.747  -0.703  0.00  0.00    +0.000 A 
ATOM     14  C   UNL     1      -2.007   2.520  -1.254  0.00  0.00    +0.006 A 
ENDBRANCH   1   9
BRANCH   1  15
ATOM     15  O   UNL     1      -1.047   0.190  -2.411  0.00  0.00    -0.384 OA
ATOM     16  H   UNL     1      -1.925   0.249  -2.873  0.00  0.00    +0.211 HD
ENDBRANCH   1  15
BRANCH   1  17
ATOM     17  C   UNL     1       0.110  -0.383  -0.415  0.00  0.00    +0.055 C 
BRANCH  17  18
ATOM     18  C   UNL     1       1.273   0.553  -0.797  0.00  0.00    +0.087 C 
BRANCH  18  19
ATOM     19  N   UNL     1       2.518   0.121  -0.122  0.00  0.00    -0.302 NA
ATOM     20  C   UNL     1       2.645   0.763   1.206  0.00  0.00    +0.084 C 
ATOM     21  C   UNL     1       3.876   0.225   1.942  0.00  0.00    +0.015 C 
ATOM     22  C   UNL     1       5.140   0.465   1.115  0.00  0.00    +0.002 C 
ATOM     23  C   UNL     1       4.976  -0.104  -0.296  0.00  0.00    +0.015 C 
ATOM     24  C   UNL     1       3.699   0.436  -0.953  0.00  0.00    +0.084 C 
ENDBRANCH  18  19
ENDBRANCH  17  18
ENDBRANCH   1  17
TORSDOF 6
