REMARK  Name = 
REMARK  1 active torsions:
REMARK  status: ('A' for Active; 'I' for Inactive)
REMARK    1  A    between atoms: O_1  and  BI_2
REMARK                            x       y       z     vdW  Elec       q    Type
REMARK                         _______ _______ _______ _____ _____    ______ ____
ROOT
ATOM      1 BI   UNL     1       0.355  -0.655  -1.846  0.00  0.00    +0.000 Bi
ATOM      2  O   UNL     1      -1.013  -0.093  -2.249  0.00  0.00    +0.000 OA
ATOM      3  C   UNL     1      -1.259  -0.432  -3.718  0.00  0.00    +0.000 C 
ATOM      4  O   UNL     1      -1.604   0.408  -4.607  0.00  0.00    +0.000 OA
ATOM      5  C   UNL     1      -1.035  -1.901  -3.968  0.00  0.00    +0.000 A 
ATOM      6  C   UNL     1      -1.564  -2.444  -5.134  0.00  0.00    +0.000 A 
ATOM      7  C   UNL     1      -1.394  -3.777  -5.431  0.00  0.00    +0.000 A 
ATOM      8  C   UNL     1      -0.680  -4.593  -4.551  0.00  0.00    +0.000 A 
ATOM      9  C   UNL     1      -0.157  -4.047  -3.381  0.00  0.00    +0.000 A 
ATOM     10  C   UNL     1      -0.332  -2.703  -3.094  0.00  0.00    +0.000 A 
ATOM     11  O   UNL     1       0.259  -2.179  -1.811  0.00  0.00    +0.000 OA
ENDROOT
BRANCH   1  12
ATOM     12  O   UNL     1       1.068   0.061   0.040  0.00  0.00    +0.000 OA
ATOM     13  H   UNL     1       2.068   0.061   0.040  0.00  0.00    +0.000 HD
ENDBRANCH   1  12
TORSDOF 1
