REMARK  Name = 
REMARK  17 active torsions:
REMARK  status: ('A' for Active; 'I' for Inactive)
REMARK    1  A    between atoms: C_1  and  C_2
REMARK    2  A    between atoms: C_2  and  C_3
REMARK    3  A    between atoms: C_2  and  N_4
REMARK    4  A    between atoms: N_4  and  C_5
REMARK    5  A    between atoms: C_5  and  C_6
REMARK    6  A    between atoms: C_6  and  O_7
REMARK    7  A    between atoms: C_6  and  C_8
REMARK    8  A    between atoms: C_8  and  O_9
REMARK    9  A    between atoms: O_9  and  C_10
REMARK   10  A    between atoms: C_13  and  C_14
REMARK   11  A    between atoms: C_14  and  O_15
REMARK   12  A    between atoms: O_15  and  C_16
REMARK   13  A    between atoms: C_16  and  C_17
REMARK   14  A    between atoms: C_17  and  O_18
REMARK   15  A    between atoms: O_18  and  C_19
REMARK   16  A    between atoms: C_19  and  C_20
REMARK   17  A    between atoms: C_19  and  C_21
REMARK                            x       y       z     vdW  Elec       q    Type
REMARK                         _______ _______ _______ _____ _____    ______ ____
ROOT
ATOM      1  C   UNL     1      -0.992  -0.748  -1.469  0.00  0.00    +0.121 A 
ATOM      2  C   UNL     1      -0.931   0.487  -0.795  0.00  0.00    +0.046 A 
ATOM      3  C   UNL     1       0.304   1.023  -0.413  0.00  0.00    +0.009 A 
ATOM      4  C   UNL     1       1.494   0.346  -0.715  0.00  0.00    -0.022 A 
ATOM      5  C   UNL     1       1.433  -0.886  -1.382  0.00  0.00    +0.009 A 
ATOM      6  C   UNL     1       0.200  -1.423  -1.760  0.00  0.00    +0.046 A 
ENDROOT
BRANCH   1   7
ATOM      7  O   UNL     1      -2.198  -1.336  -1.883  0.00  0.00    -0.489 OA
BRANCH   7   8
ATOM      8  C   UNL     1      -3.514  -0.919  -1.513  0.00  0.00    +0.261 C 
BRANCH   8   9
ATOM      9  C   UNL     1      -3.903  -1.494  -0.136  0.00  0.00    +0.166 C 
BRANCH   9  10
ATOM     10  O   UNL     1      -3.160  -0.898   0.898  0.00  0.00    -0.387 OA
ATOM     11  H   UNL     1      -3.410   0.061   0.936  0.00  0.00    +0.210 HD
ENDBRANCH   9  10
BRANCH   9  12
ATOM     12  C   UNL     1      -5.417  -1.393   0.142  0.00  0.00    +0.115 C 
BRANCH  12  13
ATOM     13  N   UNL     1      -5.865   0.009   0.145  0.00  0.00    -0.311 NA
ATOM     14  H   UNL     1      -5.932   0.346  -0.845  0.00  0.00    +0.122 HD
BRANCH  13  16
ATOM     15  C   UNL     1      -7.389   1.669   1.096  0.00  0.00    +0.023 C 
ATOM     16  C   UNL     1      -7.173   0.183   0.803  0.00  0.00    +0.048 C 
ATOM     17  C   UNL     1      -8.327  -0.361  -0.057  0.00  0.00    +0.023 C 
ENDBRANCH  13  16
ENDBRANCH  12  13
ENDBRANCH   9  12
ENDBRANCH   8   9
ENDBRANCH   7   8
ENDBRANCH   1   7
BRANCH   4  18
ATOM     18  C   UNL     1       2.821   0.901  -0.285  0.00  0.00    +0.195 C 
BRANCH  18  19
ATOM     19  O   UNL     1       3.236   0.235   0.890  0.00  0.00    -0.373 OA
BRANCH  19  20
ATOM     20  C   UNL     1       4.585   0.546   1.188  0.00  0.00    +0.188 C 
BRANCH  20  21
ATOM     21  C   UNL     1       5.511  -0.540   0.635  0.00  0.00    +0.188 C 
BRANCH  21  22
ATOM     22  O   UNL     1       6.853  -0.280   1.003  0.00  0.00    -0.375 OA
BRANCH  22  23
ATOM     23  C   UNL     1       7.519   0.505   0.027  0.00  0.00    +0.112 C 
ATOM     24  C   UNL     1       8.492   1.443   0.741  0.00  0.00    +0.037 C 
ATOM     25  C   UNL     1       8.281  -0.408  -0.939  0.00  0.00    +0.037 C 
ENDBRANCH  22  23
ENDBRANCH  21  22
ENDBRANCH  20  21
ENDBRANCH  19  20
ENDBRANCH  18  19
ENDBRANCH   4  18
TORSDOF 13
