REMARK  Name = 
REMARK  51 active torsions:
REMARK  status: ('A' for Active; 'I' for Inactive)
REMARK    1  A    between atoms: C_1  and  C_2
REMARK    2  A    between atoms: C_2  and  O_3
REMARK    3  A    between atoms: C_2  and  C_4
REMARK    4  A    between atoms: C_4  and  N_5
REMARK    5  A    between atoms: C_4  and  C_73
REMARK    6  A    between atoms: C_6  and  C_8
REMARK    7  A    between atoms: C_8  and  C_9
REMARK    8  A    between atoms: C_8  and  C_10
REMARK    9  A    between atoms: C_10  and  O_11
REMARK   10  A    between atoms: C_10  and  C_12
REMARK   11  A    between atoms: C_12  and  C_13
REMARK   12  A    between atoms: C_12  and  N_14
REMARK   13  A    between atoms: C_15  and  C_17
REMARK   14  A    between atoms: C_17  and  N_18
REMARK   15  A    between atoms: C_17  and  C_41
REMARK   16  A    between atoms: C_19  and  C_21
REMARK   17  A    between atoms: C_22  and  C_23
REMARK   18  A    between atoms: C_27  and  C_29
REMARK   19  A    between atoms: C_29  and  C_30
REMARK   20  A    between atoms: C_29  and  N_34
REMARK   21  A    between atoms: C_30  and  C_31
REMARK   22  A    between atoms: N_34  and  C_35
REMARK   23  A    between atoms: C_35  and  C_36
REMARK   24  A    between atoms: C_36  and  N_37
REMARK   25  A    between atoms: C_36  and  C_38
REMARK   26  A    between atoms: C_41  and  O_42
REMARK   27  A    between atoms: C_41  and  C_68
REMARK   28  A    between atoms: O_42  and  C_43
REMARK   29  A    between atoms: C_45  and  C_46
REMARK   30  A    between atoms: C_46  and  O_47
REMARK   31  A    between atoms: C_48  and  O_49
REMARK   32  A    between atoms: C_50  and  O_51
REMARK   33  A    between atoms: C_52  and  O_53
REMARK   34  A    between atoms: O_53  and  C_54
REMARK   35  A    between atoms: C_56  and  C_57
REMARK   36  A    between atoms: C_57  and  O_58
REMARK   37  A    between atoms: C_59  and  O_60
REMARK   38  A    between atoms: C_61  and  O_62
REMARK   39  A    between atoms: O_62  and  C_63
REMARK   40  A    between atoms: C_66  and  O_67
REMARK   41  A    between atoms: N_75  and  C_76
REMARK   42  A    between atoms: C_76  and  C_77
REMARK   43  A    between atoms: C_77  and  C_78
REMARK   44  A    between atoms: C_80  and  C_83
REMARK   45  A    between atoms: C_85  and  C_88
REMARK   46  A    between atoms: N_90  and  C_91
REMARK   47  A    between atoms: C_91  and  C_92
REMARK   48  A    between atoms: C_92  and  C_93
REMARK   49  A    between atoms: C_93  and  S_94
REMARK   50  A    between atoms: S_94  and  C_95
REMARK   51  A    between atoms: S_94  and  C_96
REMARK                            x       y       z     vdW  Elec       q    Type
REMARK                         _______ _______ _______ _____ _____    ______ ____
ROOT
ATOM      1  C   UNL     1      -5.436  -3.027  15.908  0.00  0.00    +0.194 C 
ENDROOT
BRANCH   1   2
ATOM      2  N   UNL     1      -4.189  -3.710  16.034  0.00  0.00    -0.296 N 
ATOM      3  C   UNL     1      -3.146  -4.046  15.105  0.00  0.00    +0.263 C 
ATOM      4  O   UNL     1      -2.097  -4.506  15.529  0.00  0.00    -0.268 OA
ATOM      5  H   UNL     1      -4.263  -4.112  16.920  0.00  0.00    +0.150 HD
BRANCH   3   6
ATOM      6  C   UNL     1      -3.224  -3.713  13.475  0.00  0.00    +0.134 A 
ATOM      7  C   UNL     1      -3.074  -4.554  12.242  0.00  0.00    +0.020 A 
ATOM      8  C   UNL     1      -2.271  -5.696  12.529  0.00  0.00    +0.050 C 
ATOM      9  C   UNL     1      -3.333  -3.890  10.515  0.00  0.00    +0.123 A 
ATOM     10  N   UNL     1      -3.262  -4.617   9.437  0.00  0.00    -0.343 N 
ATOM     11  N   UNL     1      -3.792  -2.315   9.978  0.00  0.00    -0.216 NA
ATOM     12  C   UNL     1      -4.338  -1.318  11.224  0.00  0.00    +0.149 A 
ATOM     13  N   UNL     1      -3.882  -2.152  13.033  0.00  0.00    -0.225 NA
ATOM     14  H   UNL     1      -2.741  -5.160  10.127  0.00  0.00    +0.144 HD
ATOM     15  H   UNL     1      -2.822  -3.800   8.936  0.00  0.00    +0.144 HD
BRANCH  12  16
ATOM     16  C   UNL     1      -4.315   0.611  11.054  0.00  0.00    +0.131 C 
BRANCH  16  17
ATOM     17  N   UNL     1      -3.007   1.605  11.509  0.00  0.00    -0.304 NA
ATOM     18  H   UNL     1      -2.356   0.914  11.069  0.00  0.00    +0.123 HD
BRANCH  17  19
ATOM     19  C   UNL     1      -2.464   1.486  13.036  0.00  0.00    +0.109 C 
BRANCH  19  20
ATOM     20  C   UNL     1      -2.103  -0.309  13.707  0.00  0.00    +0.151 C 
BRANCH  20  21
ATOM     21  C   UNL     1      -2.592  -0.835  15.888  0.00  0.00    +0.229 C 
ATOM     22  N   UNL     1      -1.744  -1.635  16.652  0.00  0.00    -0.328 N 
ATOM     23  O   UNL     1      -3.668  -0.775  16.676  0.00  0.00    -0.274 OA
ATOM     24  H   UNL     1      -2.492  -2.072  17.144  0.00  0.00    +0.145 HD
ATOM     25  H   UNL     1      -0.969  -1.806  15.974  0.00  0.00    +0.145 HD
ENDBRANCH  20  21
BRANCH  20  26
ATOM     26  N   UNL     1      -2.475  -0.708  11.491  0.00  0.00    -0.319 NA
ATOM     27  H   UNL     1      -2.890  -1.504  12.108  0.00  0.00    +0.119 HD
ATOM     28  H   UNL     1      -2.207  -1.538  10.899  0.00  0.00    +0.119 HD
ENDBRANCH  20  26
ENDBRANCH  19  20
ENDBRANCH  17  19
ENDBRANCH  16  17
BRANCH  16  29
ATOM     29  C   UNL     1      -5.003   0.400   9.851  0.00  0.00    +0.122 C 
BRANCH  29  30
ATOM     30  C   UNL     1      -3.790   0.213   9.035  0.00  0.00    +0.212 C 
ATOM     31  N   UNL     1      -3.885  -0.844   8.187  0.00  0.00    -0.329 N 
ATOM     32  O   UNL     1      -2.791   0.917   9.094  0.00  0.00    -0.276 OA
ATOM     33  H   UNL     1      -3.054  -1.051   7.667  0.00  0.00    +0.145 HD
ATOM     34  H   UNL     1      -4.477  -1.646   8.436  0.00  0.00    +0.145 HD
ENDBRANCH  29  30
ENDBRANCH  16  29
ENDBRANCH  12  16
ENDBRANCH   3   6
ENDBRANCH   1   2
BRANCH   1  36
ATOM     35  N   UNL     1      -6.544  -4.896  15.081  0.00  0.00    -0.309 N 
ATOM     36  C   UNL     1      -6.598  -3.889  15.933  0.00  0.00    +0.237 C 
ATOM     37  O   UNL     1      -7.731  -3.595  16.289  0.00  0.00    -0.274 OA
ATOM     38  H   UNL     1      -7.579  -4.915  14.884  0.00  0.00    +0.149 HD
BRANCH  35  39
ATOM     39  C   UNL     1      -5.383  -5.548  13.905  0.00  0.00    +0.099 C 
ATOM     40  C   UNL     1      -5.565  -5.975  11.953  0.00  0.00    +0.030 C 
BRANCH  39  41
ATOM     41  C   UNL     1      -4.751  -6.584  14.547  0.00  0.00    +0.146 C 
BRANCH  41  42
ATOM     42  C   UNL     1      -4.577  -6.628  15.935  0.00  0.00    +0.102 C 
ATOM     43  C   UNL     1      -3.193  -7.039  15.989  0.00  0.00    +0.020 C 
BRANCH  42  45
ATOM     44  N   UNL     1      -5.636  -8.873  16.030  0.00  0.00    -0.302 N 
ATOM     45  C   UNL     1      -5.592  -7.579  16.499  0.00  0.00    +0.219 C 
ATOM     46  O   UNL     1      -6.462  -7.130  17.246  0.00  0.00    -0.275 OA
ATOM     47  H   UNL     1      -6.303  -9.444  16.539  0.00  0.00    +0.150 HD
BRANCH  44  48
ATOM     48  C   UNL     1      -4.898  -9.579  14.883  0.00  0.00    +0.187 C 
BRANCH  48  49
ATOM     49  C   UNL     1      -4.184  -8.858  13.781  0.00  0.00    +0.236 C 
ATOM     50  O   UNL     1      -2.943  -8.784  13.785  0.00  0.00    -0.274 OA
ATOM     51  N   UNL     1      -5.179  -8.089  12.886  0.00  0.00    -0.313 N 
ATOM     52  H   UNL     1      -4.663  -7.328  12.543  0.00  0.00    +0.149 HD
BRANCH  51  53
ATOM     53  C   UNL     1      -6.761  -7.742  13.159  0.00  0.00    +0.111 C 
BRANCH  53  54
ATOM     54  C   UNL     1      -7.437  -6.528  13.840  0.00  0.00    +0.081 C 
BRANCH  54  55
ATOM     55  C   UNL     1      -7.351  -5.058  12.890  0.00  0.00    +0.081 A 
ATOM     56  N   UNL     1      -6.294  -4.241  12.943  0.00  0.00    -0.242 NA
ATOM     57  C   UNL     1      -5.427  -3.716  11.990  0.00  0.00    +0.103 A 
ATOM     58  C   UNL     1      -6.182  -3.610  10.918  0.00  0.00    +0.077 A 
ATOM     59  S   UNL     1      -8.001  -4.712  11.405  0.00  0.00    -0.080 S 
BRANCH  57  60
ATOM     60  C   UNL     1      -4.157  -2.780  11.806  0.00  0.00    +0.128 A 
ATOM     61  N   UNL     1      -2.466  -2.733  11.787  0.00  0.00    -0.233 NA
ATOM     62  C   UNL     1      -1.001  -1.916  12.057  0.00  0.00    +0.133 A 
ATOM     63  C   UNL     1      -1.133  -0.385  12.282  0.00  0.00    +0.080 A 
ATOM     64  S   UNL     1      -3.697  -0.457  12.761  0.00  0.00    -0.073 S 
BRANCH  62  65
ATOM     65  C   UNL     1       0.233  -2.374  11.854  0.00  0.00    +0.263 C 
ATOM     66  O   UNL     1       1.082  -1.556  12.101  0.00  0.00    -0.269 OA
ATOM     67  N   UNL     1       0.290  -3.560  11.285  0.00  0.00    -0.310 N 
ATOM     68  H   UNL     1       1.196  -3.826  11.071  0.00  0.00    +0.149 HD
BRANCH  67  69
ATOM     69  C   UNL     1      -0.694  -4.421  10.849  0.00  0.00    +0.105 C 
BRANCH  69  70
ATOM     70  C   UNL     1      -0.921  -4.906   9.496  0.00  0.00    +0.029 C 
BRANCH  70  71
ATOM     71  C   UNL     1       0.304  -5.559   9.143  0.00  0.00    +0.060 C 
BRANCH  71  72
ATOM     72  S   UNL     1       0.397  -7.118  10.097  0.00  0.00    -0.214 S 
ATOM     73  C   UNL     1       2.003  -7.593   9.547  0.00  0.00    +0.073 C 
ATOM     74  C   UNL     1       0.772  -6.705  11.844  0.00  0.00    +0.073 C 
ENDBRANCH  71  72
ENDBRANCH  70  71
ENDBRANCH  69  70
ENDBRANCH  67  69
ENDBRANCH  62  65
ENDBRANCH  57  60
ENDBRANCH  54  55
ENDBRANCH  53  54
ENDBRANCH  51  53
ENDBRANCH  48  49
BRANCH  48  76
ATOM     75  C   UNL     1      -7.135 -10.507  14.647  0.00  0.00    +0.040 C 
ATOM     76  C   UNL     1      -5.811 -10.427  13.966  0.00  0.00    +0.141 C 
BRANCH  76  77
ATOM     77  O   UNL     1      -5.952  -9.996  12.617  0.00  0.00    -0.390 OA
ATOM     78  H   UNL     1      -6.724 -10.198  12.103  0.00  0.00    +0.210 HD
ENDBRANCH  76  77
ENDBRANCH  48  76
ENDBRANCH  44  48
ENDBRANCH  42  45
ENDBRANCH  41  42
BRANCH  41  79
ATOM     79  O   UNL     1      -3.723  -6.741  13.694  0.00  0.00    -0.389 OA
ATOM     80  H   UNL     1      -3.889  -6.161  12.960  0.00  0.00    +0.210 HD
ENDBRANCH  41  79
ENDBRANCH  39  41
ENDBRANCH  35  39
ENDBRANCH   1  36
BRANCH   1  81
ATOM     81  C   UNL     1      -5.181  -2.473  14.693  0.00  0.00    +0.198 C 
BRANCH  81  82
ATOM     82  C   UNL     1      -3.875  -1.518  14.832  0.00  0.00    +0.067 A 
ATOM     83  C   UNL     1      -2.145  -1.982  14.580  0.00  0.00    +0.136 A 
ATOM     84  N   UNL     1      -1.056  -0.443  15.156  0.00  0.00    -0.244 NA
ATOM     85  C   UNL     1      -2.032   0.841  15.388  0.00  0.00    +0.196 A 
ATOM     86  N   UNL     1      -3.754   0.336  14.998  0.00  0.00    -0.346 N 
ATOM     87  H   UNL     1      -4.420   0.438  15.720  0.00  0.00    +0.167 HD
ENDBRANCH  81  82
BRANCH  81  88
ATOM     88  O   UNL     1      -6.080  -2.531  13.687  0.00  0.00    -0.337 OA
BRANCH  88  89
ATOM     89  C   UNL     1      -7.975  -2.732  13.626  0.00  0.00    +0.283 C 
ATOM     90  O   UNL     1      -9.136  -3.595  14.122  0.00  0.00    -0.340 OA
ATOM     91  C   UNL     1     -10.469  -2.811  14.786  0.00  0.00    +0.178 C 
ATOM     92  C   UNL     1     -11.177  -1.502  13.444  0.00  0.00    +0.177 C 
ATOM     93  C   UNL     1     -10.109   0.132  12.564  0.00  0.00    +0.179 C 
ATOM     94  C   UNL     1      -8.280  -1.025  12.342  0.00  0.00    +0.208 C 
BRANCH  92  95
ATOM     95  O   UNL     1     -12.315  -0.942  13.777  0.00  0.00    -0.386 OA
ATOM     96  H   UNL     1     -11.777  -0.341  14.287  0.00  0.00    +0.210 HD
ENDBRANCH  92  95
BRANCH  93  97
ATOM     97  O   UNL     1      -9.702   1.514  13.712  0.00  0.00    -0.386 OA
ATOM     98  H   UNL     1      -8.823   1.238  14.274  0.00  0.00    +0.210 HD
ENDBRANCH  93  97
BRANCH  94  99
ATOM     99  O   UNL     1      -6.689  -0.352  12.084  0.00  0.00    -0.338 OA
BRANCH  99 100
ATOM    100  C   UNL     1      -6.732   0.682  12.941  0.00  0.00    +0.283 C 
ATOM    101  O   UNL     1      -8.059   0.862  13.073  0.00  0.00    -0.340 OA
ATOM    102  C   UNL     1      -9.076  -0.467  13.791  0.00  0.00    +0.179 C 
ATOM    103  C   UNL     1      -8.202  -0.752  14.795  0.00  0.00    +0.189 C 
ATOM    104  C   UNL     1      -7.107  -1.121  14.058  0.00  0.00    +0.242 C 
ATOM    105  C   UNL     1      -6.444   0.096  14.143  0.00  0.00    +0.213 C 
BRANCH 103 106
ATOM    106  O   UNL     1      -9.270  -1.436  14.557  0.00  0.00    -0.385 OA
ATOM    107  H   UNL     1      -9.371  -2.101  13.843  0.00  0.00    +0.210 HD
ENDBRANCH 103 106
BRANCH 105 108
ATOM    108  O   UNL     1      -5.448  -0.565  13.774  0.00  0.00    -0.383 OA
ATOM    109  H   UNL     1      -5.512  -1.199  12.980  0.00  0.00    +0.210 HD
ENDBRANCH 105 108
BRANCH 102 110
ATOM    110  C   UNL     1      -9.907  -1.728  12.199  0.00  0.00    +0.190 C 
BRANCH 110 111
ATOM    111  O   UNL     1      -9.725  -3.026  11.947  0.00  0.00    -0.392 OA
ATOM    112  H   UNL     1      -9.760  -3.418  12.823  0.00  0.00    +0.210 HD
ENDBRANCH 110 111
ENDBRANCH 102 110
BRANCH 104 113
ATOM    113  O   UNL     1      -7.058  -2.157  12.291  0.00  0.00    -0.442 OA
BRANCH 113 114
ATOM    114  C   UNL     1      -7.417  -1.889  10.668  0.00  0.00    +0.398 C 
ATOM    115  N   UNL     1      -7.731  -0.185  10.467  0.00  0.00    -0.295 N 
ATOM    116  O   UNL     1      -7.985  -2.761   9.949  0.00  0.00    -0.227 OA
ATOM    117  H   UNL     1      -8.633   0.080  10.145  0.00  0.00    +0.148 HD
ATOM    118  H   UNL     1      -7.943   0.395  11.442  0.00  0.00    +0.148 HD
ENDBRANCH 113 114
ENDBRANCH 104 113
ENDBRANCH  99 100
ENDBRANCH  94  99
BRANCH  91 119
ATOM    119  C   UNL     1      -9.970  -1.878  16.325  0.00  0.00    +0.190 C 
BRANCH 119 120
ATOM    120  O   UNL     1     -10.860  -0.750  16.229  0.00  0.00    -0.392 OA
ATOM    121  H   UNL     1     -10.649  -0.170  15.489  0.00  0.00    +0.210 HD
ENDBRANCH 119 120
ENDBRANCH  91 119
ENDBRANCH  88  89
ENDBRANCH  81  88
ENDBRANCH   1  81
TORSDOF 45
