REMARK  Name = 
REMARK  18 active torsions:
REMARK  status: ('A' for Active; 'I' for Inactive)
REMARK    1  A    between atoms: C_4  and  C_5
REMARK    2  A    between atoms: N_7  and  C_8
REMARK    3  A    between atoms: C_8  and  C_9
REMARK    4  A    between atoms: C_8  and  C_14
REMARK    5  A    between atoms: C_9  and  C_10
REMARK    6  A    between atoms: C_14  and  C_16
REMARK    7  A    between atoms: C_20  and  C_21
REMARK    8  A    between atoms: C_20  and  C_22
REMARK    9  A    between atoms: C_23  and  C_25
REMARK   10  A    between atoms: C_25  and  N_26
REMARK   11  A    between atoms: C_25  and  C_34
REMARK   12  A    between atoms: N_29  and  C_30
REMARK   13  A    between atoms: C_30  and  C_31
REMARK   14  A    between atoms: C_30  and  C_32
REMARK   15  A    between atoms: C_30  and  C_33
REMARK   16  A    between atoms: C_34  and  C_35
REMARK   17  A    between atoms: C_34  and  C_36
REMARK   18  A    between atoms: C_34  and  C_37
REMARK                            x       y       z     vdW  Elec       q    Type
REMARK                         _______ _______ _______ _____ _____    ______ ____
ROOT
ATOM      1  C   UNL     1       0.038   4.359  -0.389  0.00  0.00    +0.018 C 
ATOM      2  C   UNL     1      -1.273   3.591  -0.285  0.00  0.00    +0.113 C 
ATOM      3  N   UNL     1      -1.005   2.233  -0.735  0.00  0.00    -0.288 N 
ATOM      4  C   UNL     1       0.391   2.040  -1.129  0.00  0.00    +0.166 C 
ATOM      5  C   UNL     1       1.092   3.389  -0.935  0.00  0.00    +0.030 C 
ATOM      6  C   UNL     1       0.662   4.604  -1.766  0.00  0.00    -0.025 C 
ATOM      7  C   UNL     1       1.684   5.742  -1.815  0.00  0.00    +0.011 C 
ATOM      8  C   UNL     1      -0.176   4.385  -3.036  0.00  0.00    +0.011 C 
ATOM      9  C   UNL     1      -2.088   1.340  -1.076  0.00  0.00    +0.237 C 
ATOM     10  O   UNL     1      -3.184   1.830  -1.460  0.00  0.00    -0.274 OA
ENDROOT
BRANCH   4  11
ATOM     11  C   UNL     1       1.069   1.010  -0.269  0.00  0.00    +0.234 C 
ATOM     12  O   UNL     1       0.916   1.044   0.984  0.00  0.00    -0.274 OA
ATOM     13  N   UNL     1       1.900   0.009  -0.875  0.00  0.00    -0.304 N 
ATOM     14  H   UNL     1       2.098   0.081  -1.899  0.00  0.00    +0.149 HD
BRANCH  13  15
ATOM     15  C   UNL     1       2.560  -1.056  -0.114  0.00  0.00    +0.149 C 
BRANCH  15  16
ATOM     16  C   UNL     1       2.164  -2.407  -0.662  0.00  0.00    +0.237 C 
ATOM     17  O   UNL     1       1.904  -2.525  -1.892  0.00  0.00    -0.285 OA
BRANCH  16  18
ATOM     18  C   UNL     1       2.142  -3.606   0.207  0.00  0.00    +0.279 C 
ATOM     19  N   UNL     1       1.810  -4.896  -0.317  0.00  0.00    -0.323 N 
ATOM     20  O   UNL     1       2.441  -3.506   1.427  0.00  0.00    -0.267 OA
ATOM     21  H   UNL     1       1.526  -5.014  -1.313  0.00  0.00    +0.145 HD
ATOM     22  H   UNL     1       1.556  -5.052  -1.317  0.00  0.00    +0.145 HD
ENDBRANCH  16  18
ENDBRANCH  15  16
BRANCH  15  23
ATOM     23  C   UNL     1       4.088  -0.891  -0.189  0.00  0.00    +0.034 C 
BRANCH  23  24
ATOM     24  C   UNL     1       4.556   0.474   0.352  0.00  0.00    -0.009 C 
ATOM     25  C   UNL     1       6.075   0.597   0.446  0.00  0.00    +0.003 C 
ATOM     26  C   UNL     1       5.970   0.750   1.957  0.00  0.00    +0.001 C 
ATOM     27  C   UNL     1       4.457   0.620   1.869  0.00  0.00    +0.003 C 
ENDBRANCH  23  24
ENDBRANCH  15  23
ENDBRANCH  13  15
ENDBRANCH   4  11
BRANCH   9  28
ATOM     28  C   UNL     1      -1.990  -0.160  -0.870  0.00  0.00    +0.166 C 
BRANCH  28  29
ATOM     29  N   UNL     1      -2.995  -0.557   0.126  0.00  0.00    -0.288 N 
ATOM     30  C   UNL     1      -2.680  -1.274   1.330  0.00  0.00    +0.301 C 
ATOM     31  O   UNL     1      -1.494  -1.635   1.558  0.00  0.00    -0.253 OA
ATOM     32  N   UNL     1      -3.731  -1.573   2.269  0.00  0.00    -0.295 N 
ATOM     33  H   UNL     1      -3.992  -0.291  -0.037  0.00  0.00    +0.151 HD
ATOM     34  H   UNL     1      -4.678  -1.193   2.040  0.00  0.00    +0.151 HD
BRANCH  32  35
ATOM     35  C   UNL     1      -3.574  -2.387   3.490  0.00  0.00    +0.028 C 
ATOM     36  C   UNL     1      -4.939  -2.497   4.197  0.00  0.00    +0.031 C 
ATOM     37  C   UNL     1      -3.096  -3.806   3.125  0.00  0.00    +0.031 C 
ATOM     38  C   UNL     1      -2.576  -1.718   4.454  0.00  0.00    +0.031 C 
ENDBRANCH  32  35
ENDBRANCH  28  29
BRANCH  28  39
ATOM     39  C   UNL     1      -2.122  -1.011  -2.184  0.00  0.00    -0.011 C 
ATOM     40  C   UNL     1      -1.122  -0.518  -3.252  0.00  0.00    +0.013 C 
ATOM     41  C   UNL     1      -1.782  -2.483  -1.860  0.00  0.00    +0.013 C 
ATOM     42  C   UNL     1      -3.546  -0.962  -2.784  0.00  0.00    +0.013 C 
ENDBRANCH  28  39
ENDBRANCH   9  28
TORSDOF 10
