REMARK  Name = 
REMARK  13 active torsions:
REMARK  status: ('A' for Active; 'I' for Inactive)
REMARK    1  A    between atoms: C_1  and  C_2
REMARK    2  A    between atoms: C_10  and  O_11
REMARK    3  A    between atoms: O_11  and  C_12
REMARK    4  A    between atoms: C_12  and  C_13
REMARK    5  A    between atoms: C_13  and  C_14
REMARK    6  A    between atoms: C_13  and  O_20
REMARK    7  A    between atoms: C_14  and  N_15
REMARK    8  A    between atoms: N_15  and  C_16
REMARK    9  A    between atoms: C_16  and  C_17
REMARK   10  A    between atoms: C_16  and  C_18
REMARK   11  A    between atoms: C_16  and  C_19
REMARK   12  A    between atoms: O_20  and  C_21
REMARK   13  A    between atoms: C_21  and  C_23
REMARK                            x       y       z     vdW  Elec       q    Type
REMARK                         _______ _______ _______ _____ _____    ______ ____
ROOT
ATOM      1  C   UNL     1      -0.398   0.790  -0.295  0.00  0.00    +0.228 C 
ENDROOT
BRANCH   1   2
ATOM      2  C   UNL     1       0.843   1.281   0.457  0.00  0.00    +0.275 C 
BRANCH   2   3
ATOM      3  O   UNL     1       1.921   0.368   0.267  0.00  0.00    -0.488 OA
BRANCH   3  13
ATOM      4  C   UNL     1       5.836  -3.437  -0.669  0.00  0.00    +0.063 C 
ATOM      5  C   UNL     1       5.379  -2.187   0.009  0.00  0.00    +0.014 A 
ATOM      6  C   UNL     1       4.114  -1.621  -0.127  0.00  0.00    +0.034 A 
ATOM      7  C   UNL     1       4.166  -0.455   0.609  0.00  0.00    +0.042 A 
ATOM      8  C   UNL     1       5.429  -0.359   1.136  0.00  0.00    +0.050 A 
ATOM      9  N   UNL     1       6.183  -1.409   0.771  0.00  0.00    -0.358 N 
ATOM     10  C   UNL     1       5.811   0.719   1.931  0.00  0.00    +0.026 A 
ATOM     11  C   UNL     1       4.856   1.720   2.184  0.00  0.00    +0.006 A 
ATOM     12  C   UNL     1       3.555   1.624   1.642  0.00  0.00    +0.046 A 
ATOM     13  C   UNL     1       3.193   0.518   0.835  0.00  0.00    +0.130 A 
ATOM     14  H   UNL     1       7.183  -1.583   1.016  0.00  0.00    +0.166 HD
ENDBRANCH   3  13
ENDBRANCH   2   3
ENDBRANCH   1   2
BRANCH   1  15
ATOM     15  C   UNL     1      -0.899  -0.543   0.291  0.00  0.00    +0.129 C 
BRANCH  15  16
ATOM     16  N   UNL     1      -2.038  -1.052  -0.492  0.00  0.00    -0.308 NA
ATOM     17  H   UNL     1      -2.887  -0.522  -0.179  0.00  0.00    +0.123 HD
BRANCH  16  18
ATOM     18  C   UNL     1      -2.309  -2.505  -0.349  0.00  0.00    +0.011 C 
ATOM     19  C   UNL     1      -1.206  -3.332  -1.045  0.00  0.00    +0.027 C 
ATOM     20  C   UNL     1      -2.434  -2.925   1.134  0.00  0.00    +0.027 C 
ATOM     21  C   UNL     1      -3.646  -2.813  -1.058  0.00  0.00    +0.027 C 
ENDBRANCH  16  18
ENDBRANCH  15  16
ENDBRANCH   1  15
BRANCH   1  22
ATOM     22  O   UNL     1      -1.413   1.791  -0.189  0.00  0.00    -0.453 OA
BRANCH  22  23
ATOM     23  C   UNL     1      -2.378   2.037  -1.175  0.00  0.00    +0.340 C 
ATOM     24  O   UNL     1      -2.347   1.403  -2.267  0.00  0.00    -0.245 OA
BRANCH  23  25
ATOM     25  C   UNL     1      -3.434   3.044  -0.933  0.00  0.00    +0.059 A 
ATOM     26  C   UNL     1      -3.470   3.755   0.280  0.00  0.00    +0.015 A 
ATOM     27  C   UNL     1      -4.469   4.706   0.513  0.00  0.00    +0.001 A 
ATOM     28  C   UNL     1      -5.440   4.956  -0.460  0.00  0.00    +0.000 A 
ATOM     29  C   UNL     1      -5.414   4.255  -1.668  0.00  0.00    +0.001 A 
ATOM     30  C   UNL     1      -4.417   3.303  -1.906  0.00  0.00    +0.015 A 
ENDBRANCH  23  25
ENDBRANCH  22  23
ENDBRANCH   1  22
TORSDOF 9
