REMARK  Name = 
REMARK  13 active torsions:
REMARK  status: ('A' for Active; 'I' for Inactive)
REMARK    1  A    between atoms: C_1  and  C_2
REMARK    2  A    between atoms: C_2  and  C_3
REMARK    3  A    between atoms: C_2  and  C_4
REMARK    4  A    between atoms: C_4  and  C_5
REMARK    5  A    between atoms: C_5  and  N_6
REMARK    6  A    between atoms: C_5  and  B_26
REMARK    7  A    between atoms: C_7  and  C_9
REMARK    8  A    between atoms: C_9  and  C_10
REMARK    9  A    between atoms: C_9  and  N_17
REMARK   10  A    between atoms: C_10  and  C_11
REMARK   11  A    between atoms: C_18  and  C_20
REMARK   12  A    between atoms: B_26  and  O_27
REMARK   13  A    between atoms: B_26  and  O_28
REMARK                            x       y       z     vdW  Elec       q    Type
REMARK                         _______ _______ _______ _____ _____    ______ ____
ROOT
ATOM      1  C   UNL     1       0.666   0.278  -0.160  0.00  0.00    +0.000 C 
ENDROOT
BRANCH   1   3
ATOM      2  N   UNL     1      -1.852   0.485   0.170  0.00  0.00    +0.000 N 
ATOM      3  C   UNL     1      -0.731  -0.262  -0.328  0.00  0.00    +0.000 C 
ATOM      4  O   UNL     1      -0.917  -1.337  -0.962  0.00  0.00    +0.000 OA
ATOM      5  H   UNL     1      -1.671   1.419   0.607  0.00  0.00    +0.000 HD
BRANCH   2   6
ATOM      6  C   UNL     1      -3.240   0.105  -0.103  0.00  0.00    +0.000 C 
BRANCH   6   7
ATOM      7  C   UNL     1      -4.144   0.541   1.080  0.00  0.00    +0.000 C 
BRANCH   7   9
ATOM      8  C   UNL     1      -6.367  -0.300   0.093  0.00  0.00    +0.000 C 
ATOM      9  C   UNL     1      -5.429  -0.295   1.305  0.00  0.00    +0.000 C 
ATOM     10  C   UNL     1      -5.126  -1.728   1.770  0.00  0.00    +0.000 C 
ENDBRANCH   7   9
ENDBRANCH   6   7
BRANCH   6  11
ATOM     11  B   UNL     1      -3.679   0.782  -1.492  0.00  0.00    +0.000 B 
BRANCH  11  12
ATOM     12  O   UNL     1      -3.858  -0.044  -2.684  0.00  0.00    +0.000 OA
ATOM     13  H   UNL     1      -4.829  -0.236  -2.717  0.00  0.00    +0.000 HD
ENDBRANCH  11  12
BRANCH  11  14
ATOM     14  O   UNL     1      -3.749   2.237  -1.606  0.00  0.00    +0.000 OA
ATOM     15  H   UNL     1      -2.830   2.514  -1.849  0.00  0.00    +0.000 HD
ENDBRANCH  11  14
ENDBRANCH   6  11
ENDBRANCH   2   6
ENDBRANCH   1   3
BRANCH   1  16
ATOM     16  N   UNL     1       1.602  -0.817   0.124  0.00  0.00    +0.000 N 
ATOM     17  C   UNL     1       2.650  -0.703   1.103  0.00  0.00    +0.000 C 
ATOM     18  O   UNL     1       2.631   0.244   1.937  0.00  0.00    +0.000 OA
ATOM     19  H   UNL     1       1.620  -1.627  -0.536  0.00  0.00    +0.000 HD
BRANCH  17  20
ATOM     20  C   UNL     1       3.760  -1.679   1.131  0.00  0.00    +0.000 A 
ATOM     21  C   UNL     1       4.798  -1.577   2.072  0.00  0.00    +0.000 A 
ATOM     22  N   UNL     1       5.809  -2.486   2.058  0.00  0.00    +0.000 NA
ATOM     23  C   UNL     1       5.837  -3.495   1.149  0.00  0.00    +0.000 A 
ATOM     24  C   UNL     1       4.810  -3.601   0.211  0.00  0.00    +0.000 A 
ATOM     25  N   UNL     1       3.799  -2.693   0.223  0.00  0.00    +0.000 NA
ENDBRANCH  17  20
ENDBRANCH   1  16
BRANCH   1  26
ATOM     26  C   UNL     1       1.091   1.026  -1.435  0.00  0.00    +0.000 C 
BRANCH  26  27
ATOM     27  C   UNL     1       2.450   1.656  -1.272  0.00  0.00    +0.000 A 
ATOM     28  C   UNL     1       2.582   2.893  -0.619  0.00  0.00    +0.000 A 
ATOM     29  C   UNL     1       3.848   3.453  -0.420  0.00  0.00    +0.000 A 
ATOM     30  C   UNL     1       4.990   2.778  -0.862  0.00  0.00    +0.000 A 
ATOM     31  C   UNL     1       4.867   1.542  -1.502  0.00  0.00    +0.000 A 
ATOM     32  C   UNL     1       3.603   0.981  -1.706  0.00  0.00    +0.000 A 
ENDBRANCH  26  27
ENDBRANCH   1  26
TORSDOF 11
