REMARK  Name = 
REMARK  15 active torsions:
REMARK  status: ('A' for Active; 'I' for Inactive)
REMARK    1  A    between atoms: C_1  and  O_2
REMARK    2  A    between atoms: O_2  and  C_3
REMARK    3  A    between atoms: C_8  and  O_9
REMARK    4  A    between atoms: O_9  and  C_10
REMARK    5  A    between atoms: N_12  and  S_13
REMARK    6  A    between atoms: S_13  and  C_16
REMARK    7  A    between atoms: C_19  and  C_22
REMARK    8  A    between atoms: C_22  and  C_23
REMARK    9  A    between atoms: C_22  and  C_24
REMARK   10  A    between atoms: C_22  and  C_25
REMARK   11  A    between atoms: C_27  and  C_34
REMARK   12  A    between atoms: C_29  and  O_30
REMARK   13  A    between atoms: O_30  and  C_31
REMARK   14  A    between atoms: C_31  and  C_32
REMARK   15  A    between atoms: C_32  and  O_33
REMARK                            x       y       z     vdW  Elec       q    Type
REMARK                         _______ _______ _______ _____ _____    ______ ____
ROOT
ATOM      1  C   UNL     1      -1.994  -0.332   0.017  0.00  0.00    +0.231 A 
ATOM      2  C   UNL     1      -0.952   0.122  -0.806  0.00  0.00    +0.188 A 
ATOM      3  N   UNL     1      -0.092  -0.794  -1.489  0.00  0.00    -0.196 N 
ATOM      4  N   UNL     1      -0.786   1.456  -1.004  0.00  0.00    -0.204 NA
ATOM      5  C   UNL     1      -1.571   2.370  -0.376  0.00  0.00    +0.203 A 
ATOM      6  N   UNL     1      -2.540   1.949   0.479  0.00  0.00    -0.187 NA
ATOM      7  C   UNL     1      -2.765   0.625   0.699  0.00  0.00    +0.264 A 
ATOM      8  H   UNL     1       0.230  -0.531  -2.447  0.00  0.00    +0.175 HD
ENDROOT
BRANCH   5   9
ATOM      9  C   UNL     1      -1.359   3.805  -0.605  0.00  0.00    +0.198 A 
ATOM     10  N   UNL     1      -2.133   4.722   0.036  0.00  0.00    -0.233 NA
ATOM     11  C   UNL     1      -1.945   6.053  -0.157  0.00  0.00    +0.115 A 
ATOM     12  C   UNL     1      -0.947   6.497  -1.024  0.00  0.00    +0.039 A 
ATOM     13  C   UNL     1      -0.163   5.546  -1.676  0.00  0.00    +0.115 A 
ATOM     14  N   UNL     1      -0.381   4.223  -1.456  0.00  0.00    -0.233 NA
ENDBRANCH   5   9
BRANCH   3  15
ATOM     15  S   UNL     1       0.904  -1.924  -0.630  0.00  0.00    +0.074 S 
ATOM     16  O   UNL     1       0.863  -3.257  -1.321  0.00  0.00    -0.150 OA
ATOM     17  O   UNL     1       0.414  -2.103   0.780  0.00  0.00    -0.150 OA
BRANCH  15  18
ATOM     18  C   UNL     1       2.555  -1.314  -0.597  0.00  0.00    +0.109 A 
ATOM     19  C   UNL     1       3.360  -1.417  -1.735  0.00  0.00    +0.029 A 
ATOM     20  C   UNL     1       4.666  -0.919  -1.726  0.00  0.00    +0.006 A 
ATOM     21  C   UNL     1       5.201  -0.301  -0.570  0.00  0.00    -0.042 A 
ATOM     22  C   UNL     1       4.366  -0.200   0.566  0.00  0.00    +0.006 A 
ATOM     23  C   UNL     1       3.061  -0.696   0.550  0.00  0.00    +0.029 A 
BRANCH  21  24
ATOM     24  C   UNL     1       6.639   0.255  -0.510  0.00  0.00    -0.013 C 
ATOM     25  C   UNL     1       6.596   1.765  -0.187  0.00  0.00    +0.015 C 
ATOM     26  C   UNL     1       7.429  -0.483   0.593  0.00  0.00    +0.015 C 
ATOM     27  C   UNL     1       7.413   0.081  -1.839  0.00  0.00    +0.015 C 
ENDBRANCH  21  24
ENDBRANCH  15  18
ENDBRANCH   3  15
BRANCH   1  28
ATOM     28  O   UNL     1      -2.221  -1.709   0.157  0.00  0.00    -0.443 OA
BRANCH  28  34
ATOM     29  C   UNL     1      -3.612  -3.578   0.786  0.00  0.00    +0.162 A 
ATOM     30  C   UNL     1      -4.864  -4.226   0.785  0.00  0.00    +0.049 A 
ATOM     31  C   UNL     1      -5.962  -3.636   0.156  0.00  0.00    +0.004 A 
ATOM     32  C   UNL     1      -5.824  -2.404  -0.483  0.00  0.00    +0.004 A 
ATOM     33  C   UNL     1      -4.588  -1.753  -0.490  0.00  0.00    +0.050 A 
ATOM     34  C   UNL     1      -3.479  -2.330   0.157  0.00  0.00    +0.170 A 
BRANCH  29  36
ATOM     35  C   UNL     1      -2.469  -5.386   2.085  0.00  0.00    +0.277 C 
ATOM     36  O   UNL     1      -2.481  -4.137   1.402  0.00  0.00    -0.491 OA
ENDBRANCH  29  36
ENDBRANCH  28  34
ENDBRANCH   1  28
BRANCH   7  37
ATOM     37  O   UNL     1      -3.738   0.213   1.618  0.00  0.00    -0.471 OA
BRANCH  37  38
ATOM     38  C   UNL     1      -4.578   1.113   2.339  0.00  0.00    +0.258 C 
BRANCH  38  39
ATOM     39  C   UNL     1      -5.691   1.657   1.447  0.00  0.00    +0.196 C 
BRANCH  39  40
ATOM     40  O   UNL     1      -6.467   0.598   0.958  0.00  0.00    -0.392 OA
ATOM     41  H   UNL     1      -7.205   1.013   0.443  0.00  0.00    +0.210 HD
ENDBRANCH  39  40
ENDBRANCH  38  39
ENDBRANCH  37  38
ENDBRANCH   7  37
TORSDOF 11
