REMARK  Name = 
REMARK  13 active torsions:
REMARK  status: ('A' for Active; 'I' for Inactive)
REMARK    1  A    between atoms: C_1  and  O_2
REMARK    2  A    between atoms: O_2  and  C_3
REMARK    3  A    between atoms: C_5  and  N_6
REMARK    4  A    between atoms: N_6  and  C_7
REMARK    5  A    between atoms: C_8  and  C_30
REMARK    6  A    between atoms: C_13  and  O_14
REMARK    7  A    between atoms: O_14  and  C_15
REMARK    8  A    between atoms: C_15  and  C_16
REMARK    9  A    between atoms: C_16  and  C_17
REMARK   10  A    between atoms: C_17  and  N_18
REMARK   11  A    between atoms: N_21  and  C_22
REMARK   12  A    between atoms: C_25  and  O_26
REMARK   13  A    between atoms: O_26  and  C_27
REMARK                            x       y       z     vdW  Elec       q    Type
REMARK                         _______ _______ _______ _____ _____    ______ ____
ROOT
ATOM      1  C   UNL     1      -2.842   1.611   2.047  0.00  0.00    +0.060 A 
ATOM      2  C   UNL     1      -3.258   1.237   3.342  0.00  0.00    +0.091 A 
ATOM      3  C   UNL     1      -2.330   0.682   4.228  0.00  0.00    +0.132 A 
ATOM      4  N   UNL     1      -1.038   0.512   3.850  0.00  0.00    -0.253 NA
ATOM      5  C   UNL     1      -0.598   0.864   2.614  0.00  0.00    +0.077 A 
ATOM      6  C   UNL     1       0.743   0.662   2.277  0.00  0.00    +0.077 A 
ATOM      7  C   UNL     1       1.216   1.003   0.997  0.00  0.00    +0.164 A 
ATOM      8  C   UNL     1       0.336   1.555   0.055  0.00  0.00    +0.162 A 
ATOM      9  C   UNL     1      -1.015   1.763   0.396  0.00  0.00    +0.061 A 
ATOM     10  C   UNL     1      -1.491   1.426   1.676  0.00  0.00    +0.026 A 
ENDROOT
BRANCH   1  11
ATOM     11  N   UNL     1      -3.777   2.204   1.128  0.00  0.00    -0.312 N 
ATOM     12  H   UNL     1      -3.547   3.151   0.754  0.00  0.00    +0.152 HD
BRANCH  11  15
ATOM     13  C   UNL     1      -6.188  -0.547   0.229  0.00  0.00    +0.140 A 
ATOM     14  C   UNL     1      -5.038   0.122   0.689  0.00  0.00    +0.071 A 
ATOM     15  C   UNL     1      -4.961   1.527   0.661  0.00  0.00    +0.053 A 
ATOM     16  C   UNL     1      -6.047   2.263   0.149  0.00  0.00    +0.064 A 
ATOM     17 CL   UNL     1      -6.029   4.022   0.102  0.00  0.00    -0.082 Cl
ATOM     18  C   UNL     1      -7.188   1.598  -0.310  0.00  0.00    +0.045 A 
ATOM     19  C   UNL     1      -7.261   0.204  -0.270  0.00  0.00    +0.084 A 
ATOM     20 CL   UNL     1      -8.714  -0.596  -0.854  0.00  0.00    -0.080 Cl
BRANCH  13  22
ATOM     21  C   UNL     1      -5.286  -2.827   0.732  0.00  0.00    +0.277 C 
ATOM     22  O   UNL     1      -6.297  -1.946   0.252  0.00  0.00    -0.494 OA
ENDBRANCH  13  22
ENDBRANCH  11  15
ENDBRANCH   1  11
BRANCH   8  23
ATOM     23  O   UNL     1       0.842   1.875  -1.215  0.00  0.00    -0.491 OA
ATOM     24  C   UNL     1       0.069   2.415  -2.282  0.00  0.00    +0.277 C 
ENDBRANCH   8  23
BRANCH   2  25
ATOM     25  C   UNL     1      -4.614   1.445   3.786  0.00  0.00    +0.103 C 
ATOM     26  N   UNL     1      -5.703   1.613   4.141  0.00  0.00    -0.191 NA
ENDBRANCH   2  25
BRANCH   7  27
ATOM     27  O   UNL     1       2.553   0.812   0.614  0.00  0.00    -0.488 OA
BRANCH  27  28
ATOM     28  C   UNL     1       3.523   0.040   1.324  0.00  0.00    +0.230 C 
BRANCH  28  29
ATOM     29  C   UNL     1       3.214  -1.464   1.251  0.00  0.00    +0.056 C 
BRANCH  29  30
ATOM     30  C   UNL     1       2.886  -1.943  -0.173  0.00  0.00    +0.088 C 
BRANCH  30  31
ATOM     31  N   UNL     1       3.899  -1.481  -1.145  0.00  0.00    -0.300 NA
ATOM     32  C   UNL     1       5.078  -2.361  -1.168  0.00  0.00    +0.100 C 
ATOM     33  C   UNL     1       6.203  -1.703  -1.991  0.00  0.00    +0.099 C 
ATOM     34  N   UNL     1       5.700  -0.823  -3.074  0.00  0.00    -0.303 NA
ATOM     35  C   UNL     1       5.677   0.596  -2.676  0.00  0.00    +0.105 C 
ATOM     36  C   UNL     1       4.394  -1.268  -3.599  0.00  0.00    +0.099 C 
ATOM     37  C   UNL     1       3.314  -1.366  -2.498  0.00  0.00    +0.100 C 
ENDBRANCH  30  31
ENDBRANCH  29  30
ENDBRANCH  28  29
ENDBRANCH  27  28
ENDBRANCH   7  27
TORSDOF 10
