REMARK  Name = 
REMARK  6 active torsions:
REMARK  status: ('A' for Active; 'I' for Inactive)
REMARK    1  A    between atoms: C_1  and  C_2
REMARK    2  A    between atoms: C_2  and  N_3
REMARK    3  A    between atoms: N_3  and  C_4
REMARK    4  A    between atoms: N_3  and  C_5
REMARK    5  A    between atoms: N_3  and  C_6
REMARK    6  A    between atoms: C_6  and  C_7
REMARK                            x       y       z     vdW  Elec       q    Type
REMARK                         _______ _______ _______ _____ _____    ______ ____
ROOT
ATOM      1  C   UNL     1       3.026  -2.777  -0.890  0.00  0.00    -0.050 A 
ATOM      2  C   UNL     1       3.387  -1.697  -1.726  0.00  0.00    +0.003 A 
ATOM      3  C   UNL     1       3.764  -1.907  -3.053  0.00  0.00    +0.000 A 
ATOM      4  C   UNL     1       3.773  -3.192  -3.577  0.00  0.00    +0.001 A 
ATOM      5  C   UNL     1       3.468  -4.277  -2.757  0.00  0.00    +0.015 A 
ATOM      6  C   UNL     1       3.152  -4.076  -1.412  0.00  0.00    +0.019 A 
ATOM      7 BR   UNL     1       2.946  -5.650  -0.361  0.00  0.00    -0.050 Br
ENDROOT
BRANCH   1   8
ATOM      8  C   UNL     1       2.435  -2.493   0.475  0.00  0.00    -0.039 C 
BRANCH   8   9
ATOM      9  N   UNL     1       0.877  -2.368   0.515  0.00  0.00    +0.379 N 
ATOM     10  C   UNL     1       0.423  -2.158   1.957  0.00  0.00    -0.092 C 
ATOM     11  C   UNL     1       0.223  -3.675   0.051  0.00  0.00    -0.092 C 
BRANCH   9  13
ATOM     12  C   UNL     1       0.842   0.138   0.026  0.00  0.00    -0.016 C 
ATOM     13  C   UNL     1       0.360  -1.242  -0.394  0.00  0.00    -0.079 C 
ENDBRANCH   9  13
ENDBRANCH   8   9
ENDBRANCH   1   8
TORSDOF 3
