REMARK  Name = 
REMARK  1 active torsions:
REMARK  status: ('A' for Active; 'I' for Inactive)
REMARK    1  A    between atoms: C_3  and  N_4
REMARK                            x       y       z     vdW  Elec       q    Type
REMARK                         _______ _______ _______ _____ _____    ______ ____
ROOT
ATOM      1 BR   UNL     1       0.973  -0.490  -0.477  0.00  0.00    -0.046 Br
ATOM      2  C   UNL     1       2.804  -0.100  -0.064  0.00  0.00    +0.066 A 
ATOM      3  C   UNL     1       3.360   1.195   0.010  0.00  0.00    +0.050 A 
ATOM      4  C   UNL     1       4.763   1.258   0.145  0.00  0.00    +0.026 A 
ATOM      5  C   UNL     1       5.523   0.100   0.373  0.00  0.00    +0.032 A 
ATOM      6  C   UNL     1       4.959  -1.165   0.308  0.00  0.00    +0.090 A 
ATOM      7  N   UNL     1       5.713  -2.279   0.433  0.00  0.00    -0.252 NA
ATOM      8  C   UNL     1       5.094  -3.469   0.238  0.00  0.00    +0.131 A 
ATOM      9  C   UNL     1       3.753  -3.566  -0.038  0.00  0.00    +0.131 A 
ATOM     10  N   UNL     1       2.994  -2.472  -0.111  0.00  0.00    -0.251 NA
ATOM     11  C   UNL     1       3.576  -1.263   0.045  0.00  0.00    +0.105 A 
ENDROOT
BRANCH   3  12
ATOM     12  N   UNL     1       2.648   2.429   0.113  0.00  0.00    -0.287 N 
ATOM     13  C   UNL     1       1.299   2.576   0.009  0.00  0.00    +0.180 C 
ATOM     14  N   UNL     1       0.667   3.108  -1.003  0.00  0.00    -0.254 NA
ATOM     15  C   UNL     1      -0.778   2.999  -0.609  0.00  0.00    +0.163 C 
ATOM     16  C   UNL     1      -0.824   2.063   0.600  0.00  0.00    +0.127 C 
ATOM     17  N   UNL     1       0.536   2.200   1.077  0.00  0.00    -0.315 N 
ATOM     18  H   UNL     1       3.138   3.165  -0.388  0.00  0.00    +0.155 HD
ATOM     19  H   UNL     1       0.912   1.475   1.671  0.00  0.00    +0.149 HD
ENDBRANCH   3  12
TORSDOF 1
