REMARK  Name = 
REMARK  10 active torsions:
REMARK  status: ('A' for Active; 'I' for Inactive)
REMARK    1  A    between atoms: C_1  and  C_2
REMARK    2  A    between atoms: C_2  and  N_3
REMARK    3  A    between atoms: N_3  and  C_4
REMARK    4  A    between atoms: N_6  and  C_7
REMARK    5  A    between atoms: C_7  and  C_8
REMARK    6  A    between atoms: C_8  and  C_9
REMARK    7  A    between atoms: C_9  and  O_10
REMARK    8  A    between atoms: O_10  and  C_11
REMARK    9  A    between atoms: C_18  and  S_20
REMARK   10  A    between atoms: S_20  and  N_21
REMARK                            x       y       z     vdW  Elec       q    Type
REMARK                         _______ _______ _______ _____ _____    ______ ____
ROOT
ATOM      1  C   UNL     1      -0.638  -0.783   0.343  0.00  0.00    +0.102 C 
ATOM      2  C   UNL     1       0.517  -0.793  -0.695  0.00  0.00    +0.133 C 
ATOM      3  N   UNL     1       1.468   0.311  -0.445  0.00  0.00    -0.174 NA
ATOM      4  S   UNL     1       0.676   1.818  -0.832  0.00  0.00    +0.068 S 
ATOM      5  O   UNL     1       1.398   2.955  -0.165  0.00  0.00    -0.152 OA
ATOM      6  O   UNL     1       0.632   2.031  -2.320  0.00  0.00    -0.152 OA
ATOM      7  C   UNL     1      -0.942   1.684  -0.203  0.00  0.00    +0.149 A 
ATOM      8  C   UNL     1      -1.461   0.497   0.289  0.00  0.00    +0.006 A 
ATOM      9  C   UNL     1      -2.728   0.674   0.870  0.00  0.00    +0.043 A 
ATOM     10  C   UNL     1      -3.192   1.981   0.771  0.00  0.00    +0.144 A 
ATOM     11  S   UNL     1      -2.031   2.942   0.021  0.00  0.00    -0.048 S 
ENDROOT
BRANCH  10  12
ATOM     12  S   UNL     1      -4.722   2.573   1.389  0.00  0.00    +0.062 S 
ATOM     13  O   UNL     1      -5.534   1.423   1.915  0.00  0.00    -0.153 OA
ATOM     14  O   UNL     1      -4.468   3.550   2.503  0.00  0.00    -0.153 OA
BRANCH  12  15
ATOM     15  N   UNL     1      -5.598   3.347   0.115  0.00  0.00    -0.203 NA
ATOM     16  H   UNL     1      -5.024   4.162  -0.200  0.00  0.00    +0.144 HD
ATOM     17  H   UNL     1      -6.469   3.739   0.538  0.00  0.00    +0.144 HD
ENDBRANCH  12  15
ENDBRANCH  10  12
BRANCH   1  18
ATOM     18  N   UNL     1      -1.454  -2.013   0.237  0.00  0.00    -0.308 NA
ATOM     19  H   UNL     1      -2.083  -2.072   1.071  0.00  0.00    +0.123 HD
BRANCH  18  21
ATOM     20  C   UNL     1      -3.068  -3.397  -0.993  0.00  0.00    +0.020 C 
ATOM     21  C   UNL     1      -2.264  -2.102  -0.990  0.00  0.00    +0.078 C 
ENDBRANCH  18  21
ENDBRANCH   1  18
BRANCH   3  22
ATOM     22  C   UNL     1       2.694   0.169  -1.254  0.00  0.00    +0.112 C 
BRANCH  22  23
ATOM     23  C   UNL     1       3.720  -0.735  -0.555  0.00  0.00    +0.045 C 
BRANCH  23  24
ATOM     24  C   UNL     1       4.143  -0.178   0.809  0.00  0.00    +0.161 C 
BRANCH  24  25
ATOM     25  O   UNL     1       5.091  -1.039   1.412  0.00  0.00    -0.383 OA
ATOM     26  C   UNL     1       6.400  -0.560   1.194  0.00  0.00    +0.193 C 
ENDBRANCH  24  25
ENDBRANCH  23  24
ENDBRANCH  22  23
ENDBRANCH   3  22
TORSDOF 8
