REMARK  Name = 
REMARK  8 active torsions:
REMARK  status: ('A' for Active; 'I' for Inactive)
REMARK    1  A    between atoms: C_1  and  N_2
REMARK    2  A    between atoms: N_2  and  C_3
REMARK    3  A    between atoms: N_2  and  C_4
REMARK    4  A    between atoms: C_4  and  C_5
REMARK    5  A    between atoms: C_5  and  O_6
REMARK    6  A    between atoms: O_6  and  C_7
REMARK    7  A    between atoms: C_7  and  C_8
REMARK    8  A    between atoms: C_7  and  C_14
REMARK                            x       y       z     vdW  Elec       q    Type
REMARK                         _______ _______ _______ _____ _____    ______ ____
ROOT
ATOM      1  C   UNL     1       0.965  -0.182  -1.631  0.00  0.00    +0.178 C 
ENDROOT
BRANCH   1   2
ATOM      2  C   UNL     1       2.081  -0.297  -0.063  0.00  0.00    -0.014 A 
ATOM      3  C   UNL     1       2.273  -1.477   0.796  0.00  0.00    +0.007 A 
ATOM      4  C   UNL     1       2.005  -1.548   2.208  0.00  0.00    +0.015 A 
ATOM      5  C   UNL     1       2.014  -0.399   2.964  0.00  0.00    +0.018 A 
ATOM      6 BR   UNL     1       1.858  -0.543   4.844  0.00  0.00    -0.050 Br
ATOM      7  C   UNL     1       2.202   0.782   2.271  0.00  0.00    +0.015 A 
ATOM      8  C   UNL     1       2.301   0.853   0.797  0.00  0.00    +0.007 A 
ENDBRANCH   1   2
BRANCH   1   9
ATOM      9  C   UNL     1      -0.882   0.036  -1.926  0.00  0.00    -0.015 A 
ATOM     10  C   UNL     1      -1.597   1.283  -1.835  0.00  0.00    +0.006 A 
ATOM     11  C   UNL     1      -3.025   1.347  -1.469  0.00  0.00    +0.000 A 
ATOM     12  C   UNL     1      -3.871   0.251  -1.358  0.00  0.00    +0.000 A 
ATOM     13  C   UNL     1      -3.292  -0.973  -1.671  0.00  0.00    +0.000 A 
ATOM     14  C   UNL     1      -1.889  -1.038  -1.931  0.00  0.00    +0.006 A 
ENDBRANCH   1   9
BRANCH   1  15
ATOM     15  O   UNL     1       1.303  -1.245  -2.540  0.00  0.00    -0.366 OA
BRANCH  15  16
ATOM     16  C   UNL     1       0.517  -2.390  -2.218  0.00  0.00    +0.176 C 
BRANCH  16  17
ATOM     17  C   UNL     1       0.180  -2.388  -0.659  0.00  0.00    +0.112 C 
BRANCH  17  19
ATOM     18  C   UNL     1      -0.322   0.304   0.542  0.00  0.00    +0.104 C 
ATOM     19  N   UNL     1      -0.325  -1.236   0.400  0.00  0.00    -0.306 NA
ATOM     20  C   UNL     1      -1.535  -1.593   1.070  0.00  0.00    +0.104 C 
ENDBRANCH  17  19
ENDBRANCH  16  17
ENDBRANCH  15  16
ENDBRANCH   1  15
TORSDOF 6
