REMARK  Name = 
REMARK  1 active torsions:
REMARK  status: ('A' for Active; 'I' for Inactive)
REMARK    1  A    between atoms: C_11  and  C_12
REMARK                            x       y       z     vdW  Elec       q    Type
REMARK                         _______ _______ _______ _____ _____    ______ ____
ROOT
ATOM      1 BR   UNL     1       1.068  -0.081   0.063  0.00  0.00    -0.050 Br
ATOM      2  C   UNL     1       2.957  -0.075   0.072  0.00  0.00    +0.019 A 
ATOM      3  C   UNL     1       3.636   1.134   0.182  0.00  0.00    +0.027 A 
ATOM      4  C   UNL     1       5.041   1.158   0.190  0.00  0.00    +0.024 A 
ATOM      5  C   UNL     1       5.754  -0.047   0.098  0.00  0.00    +0.043 A 
ATOM      6  N   UNL     1       7.153  -0.133   0.095  0.00  0.00    -0.283 N 
ATOM      7  C   UNL     1       8.015   0.757  -0.486  0.00  0.00    +0.239 C 
ATOM      8  O   UNL     1       9.225   0.504  -0.500  0.00  0.00    -0.273 OA
ATOM      9  C   UNL     1       7.414   1.943  -1.224  0.00  0.00    +0.238 C 
ATOM     10  N   UNL     1       6.763   2.867  -0.292  0.00  0.00    -0.272 NA
ATOM     11  C   UNL     1       5.705   2.484   0.348  0.00  0.00    +0.093 C 
ATOM     12  C   UNL     1       5.054  -1.258   0.009  0.00  0.00    +0.025 A 
ATOM     13  C   UNL     1       3.658  -1.271  -0.025  0.00  0.00    +0.017 A 
ATOM     14  H   UNL     1       7.599  -0.991   0.396  0.00  0.00    +0.155 HD
ENDROOT
BRANCH  11  15
ATOM     15  C   UNL     1       5.084   3.439   1.323  0.00  0.00    +0.089 A 
ATOM     16  C   UNL     1       4.782   4.739   0.936  0.00  0.00    +0.030 A 
ATOM     17  C   UNL     1       4.294   5.615   1.904  0.00  0.00    +0.004 A 
ATOM     18  C   UNL     1       4.077   5.151   3.198  0.00  0.00    +0.020 A 
ATOM     19  C   UNL     1       4.321   3.812   3.463  0.00  0.00    +0.111 A 
ATOM     20  N   UNL     1       4.829   2.944   2.560  0.00  0.00    -0.253 NA
ENDBRANCH  11  15
TORSDOF 1
