REMARK  Name = 
REMARK  6 active torsions:
REMARK  status: ('A' for Active; 'I' for Inactive)
REMARK    1  A    between atoms: N_1  and  C_2
REMARK    2  A    between atoms: C_3  and  C_4
REMARK    3  A    between atoms: C_4  and  C_5
REMARK    4  A    between atoms: C_5  and  O_6
REMARK    5  A    between atoms: C_11  and  C_12
REMARK    6  A    between atoms: C_12  and  C_14
REMARK                            x       y       z     vdW  Elec       q    Type
REMARK                         _______ _______ _______ _____ _____    ______ ____
ROOT
ATOM      1  C   UNL     1       1.001  -0.057   0.046  0.00  0.00    +0.039 A 
ATOM      2  C   UNL     1       0.242  -1.251  -0.004  0.00  0.00    -0.015 A 
ATOM      3  C   UNL     1      -1.165  -1.194  -0.023  0.00  0.00    +0.006 A 
ATOM      4  C   UNL     1      -1.827   0.028  -0.007  0.00  0.00    +0.001 A 
ATOM      5  C   UNL     1      -1.090   1.213  -0.007  0.00  0.00    +0.013 A 
ATOM      6  C   UNL     1       0.323   1.194  -0.015  0.00  0.00    +0.043 A 
ENDROOT
BRANCH   1   7
ATOM      7  N   UNL     1       2.396  -0.157  -0.020  0.00  0.00    -0.357 N 
ATOM      8  H   UNL     1       2.863  -1.035   0.124  0.00  0.00    +0.142 HD
ATOM      9  H   UNL     1       2.899   0.560   0.491  0.00  0.00    +0.142 HD
ENDBRANCH   1   7
BRANCH   6  10
ATOM     10  C   UNL     1       1.006   2.546  -0.069  0.00  0.00    +0.195 C 
ATOM     11  O   UNL     1       0.352   3.585   0.005  0.00  0.00    -0.287 OA
BRANCH  10  12
ATOM     12  C   UNL     1       2.480   2.693  -0.178  0.00  0.00    +0.022 A 
ATOM     13  C   UNL     1       3.174   2.139  -1.265  0.00  0.00    +0.013 A 
ATOM     14  C   UNL     1       4.571   2.067  -1.241  0.00  0.00    +0.016 A 
ATOM     15  C   UNL     1       5.274   2.640  -0.182  0.00  0.00    +0.018 A 
ATOM     16 BR   UNL     1       7.164   2.602  -0.192  0.00  0.00    -0.050 Br
ATOM     17  C   UNL     1       4.593   3.236   0.881  0.00  0.00    +0.016 A 
ATOM     18  C   UNL     1       3.192   3.251   0.893  0.00  0.00    +0.013 A 
ENDBRANCH  10  12
ENDBRANCH   6  10
BRANCH   2  19
ATOM     19  C   UNL     1       0.894  -2.618   0.026  0.00  0.00    +0.157 C 
BRANCH  19  20
ATOM     20  C   UNL     1       0.591  -3.364   1.302  0.00  0.00    +0.309 C 
ATOM     21  O   UNL     1       0.834  -2.931   2.424  0.00  0.00    -0.251 OA
BRANCH  20  22
ATOM     22  O   UNL     1       0.051  -4.587   1.110  0.00  0.00    -0.480 OA
ATOM     23  H   UNL     1      -0.093  -4.835   0.178  0.00  0.00    +0.295 HD
ENDBRANCH  20  22
ENDBRANCH  19  20
ENDBRANCH   2  19
TORSDOF 6
