REMARK  Name = 
REMARK  7 active torsions:
REMARK  status: ('A' for Active; 'I' for Inactive)
REMARK    1  A    between atoms: C_1  and  N_2
REMARK    2  A    between atoms: N_2  and  C_3
REMARK    3  A    between atoms: N_2  and  C_4
REMARK    4  A    between atoms: C_4  and  C_5
REMARK    5  A    between atoms: C_5  and  C_6
REMARK    6  A    between atoms: C_6  and  C_7
REMARK    7  A    between atoms: C_6  and  C_14
REMARK                            x       y       z     vdW  Elec       q    Type
REMARK                         _______ _______ _______ _____ _____    ______ ____
ROOT
ATOM      1  C   UNL     1       1.149  -2.469  -0.803  0.00  0.00    +0.069 C 
ENDROOT
BRANCH   1   2
ATOM      2  C   UNL     1       2.683  -2.400  -0.850  0.00  0.00    -0.038 A 
ATOM      3  C   UNL     1       3.369  -1.176  -0.983  0.00  0.00    +0.005 A 
ATOM      4  C   UNL     1       4.755  -1.098  -0.812  0.00  0.00    +0.015 A 
ATOM      5  C   UNL     1       5.495  -2.257  -0.670  0.00  0.00    +0.018 A 
ATOM      6 BR   UNL     1       7.376  -2.189  -0.552  0.00  0.00    -0.050 Br
ATOM      7  C   UNL     1       4.856  -3.491  -0.652  0.00  0.00    +0.015 A 
ATOM      8  C   UNL     1       3.467  -3.545  -0.699  0.00  0.00    +0.005 A 
ENDBRANCH   1   2
BRANCH   1   9
ATOM      9  C   UNL     1       0.562  -3.500  -1.754  0.00  0.00    +0.049 A 
ATOM     10  C   UNL     1       0.704  -4.857  -1.491  0.00  0.00    +0.024 A 
ATOM     11  C   UNL     1       0.469  -5.754  -2.520  0.00  0.00    +0.003 A 
ATOM     12  C   UNL     1      -0.043  -5.287  -3.717  0.00  0.00    +0.020 A 
ATOM     13  C   UNL     1      -0.301  -3.934  -3.850  0.00  0.00    +0.111 A 
ATOM     14  N   UNL     1       0.014  -3.029  -2.900  0.00  0.00    -0.259 NA
ENDBRANCH   1   9
BRANCH   1  15
ATOM     15  C   UNL     1       0.606  -2.645   0.634  0.00  0.00    +0.029 C 
BRANCH  15  16
ATOM     16  C   UNL     1       0.978  -1.528   1.627  0.00  0.00    +0.085 C 
BRANCH  16  18
ATOM     17  C   UNL     1       0.933   0.546   0.290  0.00  0.00    +0.104 C 
ATOM     18  N   UNL     1       0.401  -0.190   1.424  0.00  0.00    -0.308 NA
ATOM     19  C   UNL     1      -1.053  -0.209   1.373  0.00  0.00    +0.104 C 
ENDBRANCH  16  18
ENDBRANCH  15  16
ENDBRANCH   1  15
TORSDOF 5
