REMARK  Name = 
REMARK  9 active torsions:
REMARK  status: ('A' for Active; 'I' for Inactive)
REMARK    1  A    between atoms: C_1  and  C_2
REMARK    2  A    between atoms: C_2  and  C_3
REMARK    3  A    between atoms: C_2  and  C_4
REMARK    4  A    between atoms: C_2  and  C_5
REMARK    5  A    between atoms: C_8  and  C_9
REMARK    6  A    between atoms: C_9  and  N_10
REMARK    7  A    between atoms: N_13  and  C_16
REMARK    8  A    between atoms: C_16  and  C_17
REMARK    9  A    between atoms: C_16  and  C_23
REMARK                            x       y       z     vdW  Elec       q    Type
REMARK                         _______ _______ _______ _____ _____    ______ ____
ROOT
ATOM      1  N   UNL     1       0.440   1.364   0.469  0.00  0.00    -0.296 NA
ATOM      2  C   UNL     1      -0.003   0.560  -0.688  0.00  0.00    +0.100 C 
ATOM      3  C   UNL     1      -1.168  -0.348  -0.283  0.00  0.00    +0.100 C 
ATOM      4  N   UNL     1      -2.308   0.465   0.204  0.00  0.00    -0.289 NA
ATOM      5  C   UNL     1      -1.852   1.259   1.370  0.00  0.00    +0.100 C 
ATOM      6  C   UNL     1      -0.687   2.171   0.972  0.00  0.00    +0.100 C 
ENDROOT
BRANCH   1   7
ATOM      7  C   UNL     1       1.568   2.243   0.098  0.00  0.00    +0.119 C 
BRANCH   7  11
ATOM      8  C   UNL     1       5.210  -0.099  -0.228  0.00  0.00    -0.042 A 
ATOM      9  C   UNL     1       4.583   0.437  -1.379  0.00  0.00    +0.004 A 
ATOM     10  C   UNL     1       3.415   1.198  -1.272  0.00  0.00    +0.005 A 
ATOM     11  C   UNL     1       2.841   1.447  -0.020  0.00  0.00    -0.033 A 
ATOM     12  C   UNL     1       3.442   0.915   1.127  0.00  0.00    +0.005 A 
ATOM     13  C   UNL     1       4.609   0.154   1.025  0.00  0.00    +0.004 A 
BRANCH   8  15
ATOM     14  C   UNL     1       7.046  -1.099  -1.737  0.00  0.00    +0.015 C 
ATOM     15  C   UNL     1       6.496  -0.949  -0.297  0.00  0.00    -0.013 C 
ATOM     16  C   UNL     1       6.205  -2.364   0.246  0.00  0.00    +0.015 C 
ATOM     17  C   UNL     1       7.600  -0.289   0.559  0.00  0.00    +0.015 C 
ENDBRANCH   8  15
ENDBRANCH   7  11
ENDBRANCH   1   7
BRANCH   4  18
ATOM     18  C   UNL     1      -3.465  -0.405   0.565  0.00  0.00    +0.117 C 
BRANCH  18  19
ATOM     19  C   UNL     1      -4.648   0.397   1.087  0.00  0.00    -0.026 A 
ATOM     20  C   UNL     1      -5.381  -0.075   2.191  0.00  0.00    +0.007 A 
ATOM     21  C   UNL     1      -6.494   0.633   2.656  0.00  0.00    +0.020 A 
ATOM     22  C   UNL     1      -6.892   1.812   2.021  0.00  0.00    +0.041 A 
ATOM     23 CL   UNL     1      -8.288   2.698   2.607  0.00  0.00    -0.084 Cl
ATOM     24  C   UNL     1      -6.178   2.283   0.915  0.00  0.00    +0.020 A 
ATOM     25  C   UNL     1      -5.067   1.578   0.446  0.00  0.00    +0.007 A 
ENDBRANCH  18  19
BRANCH  18  26
ATOM     26  C   UNL     1      -3.959  -1.222  -0.618  0.00  0.00    -0.026 A 
ATOM     27  C   UNL     1      -4.102  -0.644  -1.895  0.00  0.00    +0.005 A 
ATOM     28  C   UNL     1      -4.595  -1.399  -2.963  0.00  0.00    +0.000 A 
ATOM     29  C   UNL     1      -4.962  -2.733  -2.768  0.00  0.00    +0.000 A 
ATOM     30  C   UNL     1      -4.838  -3.313  -1.503  0.00  0.00    +0.000 A 
ATOM     31  C   UNL     1      -4.345  -2.562  -0.431  0.00  0.00    +0.005 A 
ENDBRANCH  18  26
ENDBRANCH   4  18
TORSDOF 6
