REMARK  Name = 
REMARK  9 active torsions:
REMARK  status: ('A' for Active; 'I' for Inactive)
REMARK    1  A    between atoms: C_5  and  C_6
REMARK    2  A    between atoms: C_6  and  C_7
REMARK    3  A    between atoms: C_7  and  C_8
REMARK    4  A    between atoms: C_10  and  C_11
REMARK    5  A    between atoms: C_11  and  C_13
REMARK    6  A    between atoms: C_13  and  O_14
REMARK    7  A    between atoms: C_15  and  C_16
REMARK    8  A    between atoms: C_18  and  O_19
REMARK    9  A    between atoms: C_30  and  C_31
REMARK                            x       y       z     vdW  Elec       q    Type
REMARK                         _______ _______ _______ _____ _____    ______ ____
ROOT
ATOM      1  C   UNL     1      -0.080  -0.196  -0.856  0.00  0.00    +0.004 C 
ATOM      2  C   UNL     1       0.664  -0.438  -2.162  0.00  0.00    +0.039 C 
ATOM      3  C   UNL     1       2.073  -0.886  -1.709  0.00  0.00    +0.161 C 
ATOM      4  O   UNL     1       2.990   0.148  -1.879  0.00  0.00    -0.345 OA
ATOM      5  C   UNL     1       3.132   0.756  -0.617  0.00  0.00    +0.252 C 
ATOM      6  O   UNL     1       2.551  -0.027   0.403  0.00  0.00    -0.334 OA
ATOM      7  C   UNL     1       2.003  -1.165  -0.207  0.00  0.00    +0.164 C 
ATOM      8  C   UNL     1       0.469  -1.265   0.097  0.00  0.00    +0.012 C 
ATOM      9  C   UNL     1      -0.049  -2.704  -0.239  0.00  0.00    +0.015 C 
ATOM     10  C   UNL     1       0.049  -0.870   1.537  0.00  0.00    +0.042 C 
ATOM     11  C   UNL     1      -1.488  -0.679   1.687  0.00  0.00    +0.120 C 
ATOM     12  C   UNL     1      -2.104   0.256   0.583  0.00  0.00    +0.035 C 
ATOM     13  C   UNL     1      -1.622  -0.108  -0.868  0.00  0.00    -0.000 C 
ATOM     14  C   UNL     1      -2.083   0.967  -1.878  0.00  0.00    +0.008 C 
ATOM     15  C   UNL     1      -3.598   1.151  -1.853  0.00  0.00    +0.032 C 
ATOM     16  C   UNL     1      -4.048   1.466  -0.449  0.00  0.00    -0.056 C 
ATOM     17  C   UNL     1      -4.771   2.575  -0.220  0.00  0.00    +0.051 C 
ATOM     18  C   UNL     1      -5.171   2.943   1.137  0.00  0.00    +0.179 C 
ATOM     19  O   UNL     1      -5.869   3.973   1.335  0.00  0.00    -0.288 OA
ATOM     20  C   UNL     1      -4.743   2.118   2.263  0.00  0.00    +0.047 C 
ATOM     21  C   UNL     1      -4.031   1.009   2.058  0.00  0.00    -0.012 C 
ATOM     22  C   UNL     1      -3.666   0.482   0.670  0.00  0.00    +0.013 C 
ATOM     23  C   UNL     1      -4.489  -0.811   0.454  0.00  0.00    +0.020 C 
ENDROOT
BRANCH   7  24
ATOM     24  C   UNL     1       2.826  -2.389   0.206  0.00  0.00    +0.193 C 
ATOM     25  O   UNL     1       2.776  -3.415  -0.458  0.00  0.00    -0.292 OA
BRANCH  24  26
ATOM     26  C   UNL     1       3.729  -2.363   1.413  0.00  0.00    +0.233 C 
BRANCH  26  27
ATOM     27  O   UNL     1       2.986  -2.134   2.578  0.00  0.00    -0.387 OA
ATOM     28  H   UNL     1       2.506  -2.979   2.777  0.00  0.00    +0.210 HD
ENDBRANCH  26  27
ENDBRANCH  24  26
ENDBRANCH   7  24
BRANCH  11  29
ATOM     29  O   UNL     1      -2.129  -1.926   1.714  0.00  0.00    -0.391 OA
ATOM     30  H   UNL     1      -1.939  -2.334   2.599  0.00  0.00    +0.210 HD
ENDBRANCH  11  29
BRANCH   5  31
ATOM     31  C   UNL     1       4.620   0.979  -0.304  0.00  0.00    +0.061 C 
BRANCH  31  32
ATOM     32  C   UNL     1       5.239   2.155  -1.078  0.00  0.00    +0.002 C 
ATOM     33  C   UNL     1       5.428   1.862  -2.565  0.00  0.00    +0.004 C 
ENDBRANCH  31  32
ENDBRANCH   5  31
TORSDOF 6
