REMARK  Name = 
REMARK  11 active torsions:
REMARK  status: ('A' for Active; 'I' for Inactive)
REMARK    1  A    between atoms: C_1  and  C_2
REMARK    2  A    between atoms: C_2  and  C_3
REMARK    3  A    between atoms: C_3  and  C_4
REMARK    4  A    between atoms: C_4  and  N_5
REMARK    5  A    between atoms: N_5  and  C_6
REMARK    6  A    between atoms: C_7  and  O_8
REMARK    7  A    between atoms: O_8  and  C_9
REMARK    8  A    between atoms: C_15  and  S_22
REMARK    9  A    between atoms: C_17  and  C_19
REMARK   10  A    between atoms: C_19  and  O_20
REMARK   11  A    between atoms: S_22  and  N_23
REMARK                            x       y       z     vdW  Elec       q    Type
REMARK                         _______ _______ _______ _____ _____    ______ ____
ROOT
ATOM      1  C   UNL     1       0.396  -0.155  -0.025  0.00  0.00    +0.073 A 
ATOM      2  C   UNL     1      -0.894  -0.221   0.541  0.00  0.00    +0.175 A 
ATOM      3  C   UNL     1      -1.735  -1.317   0.270  0.00  0.00    +0.150 A 
ATOM      4  C   UNL     1      -1.300  -2.324  -0.602  0.00  0.00    +0.047 A 
ATOM      5  C   UNL     1      -0.026  -2.267  -1.186  0.00  0.00    +0.063 A 
ATOM      6  C   UNL     1       0.815  -1.182  -0.891  0.00  0.00    +0.041 A 
ENDROOT
BRANCH   3   7
ATOM      7  S   UNL     1      -3.344  -1.424   1.002  0.00  0.00    +0.060 S 
ATOM      8  O   UNL     1      -4.309  -0.592   0.205  0.00  0.00    -0.153 OA
ATOM      9  O   UNL     1      -3.293  -0.911   2.413  0.00  0.00    -0.153 OA
BRANCH   7  10
ATOM     10  N   UNL     1      -3.908  -3.060   1.046  0.00  0.00    -0.203 NA
ATOM     11  H   UNL     1      -3.113  -3.656   1.369  0.00  0.00    +0.144 HD
ATOM     12  H   UNL     1      -4.136  -3.342   0.067  0.00  0.00    +0.144 HD
ENDBRANCH   7  10
ENDBRANCH   3   7
BRANCH   1  13
ATOM     13  N   UNL     1       1.249   0.973   0.275  0.00  0.00    -0.341 N 
ATOM     14  H   UNL     1       0.843   1.795   0.775  0.00  0.00    +0.146 HD
BRANCH  13  15
ATOM     15  C   UNL     1       2.667   1.061  -0.076  0.00  0.00    +0.101 C 
BRANCH  15  16
ATOM     16  C   UNL     1       3.497   0.108   0.795  0.00  0.00    +0.018 C 
BRANCH  16  18
ATOM     17  C   UNL     1       5.391  -0.407  -0.832  0.00  0.00    +0.004 C 
ATOM     18  C   UNL     1       5.003   0.211   0.511  0.00  0.00    -0.002 C 
ENDBRANCH  16  18
ENDBRANCH  15  16
ENDBRANCH  13  15
ENDBRANCH   1  13
BRANCH   5  19
ATOM     19  C   UNL     1       0.421  -3.341  -2.103  0.00  0.00    +0.337 C 
ATOM     20  O   UNL     1       1.566  -3.297  -2.628  0.00  0.00    -0.245 OA
BRANCH  19  21
ATOM     21  O   UNL     1      -0.420  -4.412  -2.393  0.00  0.00    -0.477 OA
ATOM     22  H   UNL     1      -0.124  -5.152  -3.018  0.00  0.00    +0.295 HD
ENDBRANCH  19  21
ENDBRANCH   5  19
BRANCH   2  23
ATOM     23  O   UNL     1      -1.332   0.807   1.383  0.00  0.00    -0.452 OA
BRANCH  23  24
ATOM     24  C   UNL     1      -2.119   1.885   0.951  0.00  0.00    +0.129 A 
ATOM     25  C   UNL     1      -2.575   2.803   1.905  0.00  0.00    +0.046 A 
ATOM     26  C   UNL     1      -3.363   3.892   1.520  0.00  0.00    +0.004 A 
ATOM     27  C   UNL     1      -3.700   4.071   0.176  0.00  0.00    +0.000 A 
ATOM     28  C   UNL     1      -3.248   3.163  -0.785  0.00  0.00    +0.004 A 
ATOM     29  C   UNL     1      -2.459   2.074  -0.404  0.00  0.00    +0.046 A 
ENDBRANCH  23  24
ENDBRANCH   2  23
TORSDOF 10
