REMARK  Name = 
REMARK  8 active torsions:
REMARK  status: ('A' for Active; 'I' for Inactive)
REMARK    1  A    between atoms: C_1  and  C_2
REMARK    2  A    between atoms: C_2  and  C_3
REMARK    3  A    between atoms: C_3  and  C_4
REMARK    4  A    between atoms: C_4  and  N_5
REMARK    5  A    between atoms: C_10  and  C_11
REMARK    6  A    between atoms: N_13  and  C_14
REMARK    7  A    between atoms: C_15  and  C_16
REMARK    8  A    between atoms: C_20  and  C_21
REMARK                            x       y       z     vdW  Elec       q    Type
REMARK                         _______ _______ _______ _____ _____    ______ ____
ROOT
ATOM      1  C   UNL     1       0.783   0.681  -0.125  0.00  0.00    +0.234 C 
ATOM      2  O   UNL     1       1.212   1.292   0.891  0.00  0.00    -0.274 OA
ATOM      3  N   UNL     1       1.540  -0.408  -0.672  0.00  0.00    -0.284 N 
ATOM      4  H   UNL     1       1.095  -1.028  -1.385  0.00  0.00    +0.155 HD
ENDROOT
BRANCH   3   5
ATOM      5  C   UNL     1       2.809  -0.803  -0.130  0.00  0.00    +0.039 A 
ATOM      6  C   UNL     1       3.937   0.046  -0.239  0.00  0.00    -0.029 A 
ATOM      7  C   UNL     1       3.854   1.382  -0.931  0.00  0.00    +0.045 C 
ATOM      8  C   UNL     1       5.158  -0.350   0.327  0.00  0.00    +0.005 A 
ATOM      9  C   UNL     1       5.277  -1.590   0.955  0.00  0.00    +0.001 A 
ATOM     10  C   UNL     1       4.179  -2.446   1.032  0.00  0.00    +0.005 A 
ATOM     11  C   UNL     1       2.939  -2.063   0.497  0.00  0.00    -0.029 A 
ATOM     12  C   UNL     1       1.761  -2.992   0.604  0.00  0.00    +0.045 C 
ENDBRANCH   3   5
BRANCH   1  18
ATOM     13  N   UNL     1      -1.723   0.674   0.054  0.00  0.00    -0.291 NA
ATOM     14  C   UNL     1      -1.892   1.497   1.271  0.00  0.00    +0.085 C 
ATOM     15  C   UNL     1      -2.062   2.970   0.897  0.00  0.00    +0.015 C 
ATOM     16  C   UNL     1      -0.857   3.468   0.101  0.00  0.00    +0.003 C 
ATOM     17  C   UNL     1      -0.597   2.573  -1.117  0.00  0.00    +0.028 C 
ATOM     18  C   UNL     1      -0.542   1.073  -0.756  0.00  0.00    +0.143 C 
BRANCH  13  19
ATOM     19  C   UNL     1      -1.744  -0.775   0.359  0.00  0.00    +0.085 C 
BRANCH  19  20
ATOM     20  C   UNL     1      -3.181  -1.312   0.388  0.00  0.00    +0.015 C 
BRANCH  20  22
ATOM     21  C   UNL     1      -5.289  -1.728  -0.938  0.00  0.00    +0.004 C 
ATOM     22  C   UNL     1      -3.875  -1.154  -0.972  0.00  0.00    -0.002 C 
ENDBRANCH  20  22
ENDBRANCH  19  20
ENDBRANCH  13  19
ENDBRANCH   1  18
TORSDOF 5
