REMARK  Name = 
REMARK  12 active torsions:
REMARK  status: ('A' for Active; 'I' for Inactive)
REMARK    1  A    between atoms: C_1  and  O_2
REMARK    2  A    between atoms: O_2  and  C_3
REMARK    3  A    between atoms: C_8  and  C_9
REMARK    4  A    between atoms: C_9  and  C_10
REMARK    5  A    between atoms: C_9  and  O_11
REMARK    6  A    between atoms: C_9  and  C_12
REMARK    7  A    between atoms: C_12  and  C_13
REMARK    8  A    between atoms: C_12  and  C_14
REMARK    9  A    between atoms: C_12  and  C_15
REMARK   10  A    between atoms: N_26  and  C_27
REMARK   11  A    between atoms: C_27  and  C_28
REMARK   12  A    between atoms: C_31  and  O_32
REMARK                            x       y       z     vdW  Elec       q    Type
REMARK                         _______ _______ _______ _____ _____    ______ ____
ROOT
ATOM      1  C   UNL     1       1.551  -1.086   0.032  0.00  0.00    +0.112 C 
ATOM      2  C   UNL     1       1.142  -1.361  -1.440  0.00  0.00    +0.040 C 
ATOM      3  C   UNL     1      -0.245  -0.771  -1.770  0.00  0.00    +0.012 C 
ATOM      4  C   UNL     1      -0.937  -0.203  -0.482  0.00  0.00    +0.000 C 
ATOM      5  C   UNL     1      -0.016   0.964  -0.031  0.00  0.00    +0.018 C 
ATOM      6  C   UNL     1       1.477   0.496   0.274  0.00  0.00    +0.057 C 
ATOM      7  C   UNL     1      -2.444   0.165  -0.762  0.00  0.00    +0.068 C 
ATOM      8  C   UNL     1      -3.267  -1.077  -1.271  0.00  0.00    +0.055 C 
ATOM      9  C   UNL     1      -2.790  -2.414  -0.715  0.00  0.00    -0.038 A 
ATOM     10  C   UNL     1      -1.679  -2.448   0.132  0.00  0.00    +0.012 A 
ATOM     11  C   UNL     1      -0.879  -3.545   0.216  0.00  0.00    +0.166 A 
ATOM     12  O   UNL     1       0.369  -3.213   0.712  0.00  0.00    -0.481 OA
ATOM     13  C   UNL     1       0.461  -1.797   0.949  0.00  0.00    +0.217 C 
ATOM     14  C   UNL     1      -0.964  -1.253   0.641  0.00  0.00    +0.047 C 
ATOM     15  C   UNL     1      -1.670  -0.724   1.921  0.00  0.00    +0.031 C 
ATOM     16  C   UNL     1      -3.075  -0.164   1.638  0.00  0.00    +0.086 C 
ATOM     17  N   UNL     1      -3.129   0.704   0.441  0.00  0.00    -0.298 NA
ATOM     18  C   UNL     1      -1.287  -4.774  -0.301  0.00  0.00    +0.159 A 
ATOM     19  C   UNL     1      -2.512  -4.825  -1.000  0.00  0.00    +0.049 A 
ATOM     20  C   UNL     1      -3.240  -3.639  -1.244  0.00  0.00    +0.008 A 
ENDROOT
BRANCH   1  22
ATOM     21  C   UNL     1       3.160  -2.192   1.456  0.00  0.00    +0.194 C 
ATOM     22  O   UNL     1       2.868  -1.606   0.201  0.00  0.00    -0.373 OA
ENDBRANCH   1  22
BRANCH   6  23
ATOM     23  C   UNL     1       2.533   1.516  -0.415  0.00  0.00    +0.074 C 
ATOM     24  C   UNL     1       2.175   2.967   0.097  0.00  0.00    +0.042 C 
BRANCH  23  25
ATOM     25  C   UNL     1       4.109   1.286  -0.137  0.00  0.00    -0.009 C 
ATOM     26  C   UNL     1       4.696   0.069  -0.930  0.00  0.00    +0.013 C 
ATOM     27  C   UNL     1       4.945   2.517  -0.611  0.00  0.00    +0.013 C 
ATOM     28  C   UNL     1       4.425   1.124   1.371  0.00  0.00    +0.013 C 
ENDBRANCH  23  25
BRANCH  23  29
ATOM     29  O   UNL     1       2.361   1.462  -1.818  0.00  0.00    -0.388 OA
ATOM     30  H   UNL     1       1.676   2.116  -2.112  0.00  0.00    +0.210 HD
ENDBRANCH  23  29
ENDBRANCH   6  23
BRANCH  18  31
ATOM     31  O   UNL     1      -0.483  -5.902  -0.159  0.00  0.00    -0.503 OA
ATOM     32  H   UNL     1      -0.760  -6.798  -0.542  0.00  0.00    +0.292 HD
ENDBRANCH  18  31
BRANCH  17  33
ATOM     33  C   UNL     1      -2.930   2.142   0.713  0.00  0.00    +0.088 C 
BRANCH  33  34
ATOM     34  C   UNL     1      -4.299   2.810   0.865  0.00  0.00    +0.003 C 
ATOM     35  C   UNL     1      -4.351   4.289   0.512  0.00  0.00    +0.005 C 
ATOM     36  C   UNL     1      -4.948   3.258  -0.435  0.00  0.00    +0.005 C 
ENDBRANCH  33  34
ENDBRANCH  17  33
TORSDOF 7
