REMARK  Name = 
REMARK  11 active torsions:
REMARK  status: ('A' for Active; 'I' for Inactive)
REMARK    1  A    between atoms: C_1  and  C_2
REMARK    2  A    between atoms: C_4  and  O_5
REMARK    3  A    between atoms: O_5  and  C_6
REMARK    4  A    between atoms: C_6  and  C_7
REMARK    5  A    between atoms: C_7  and  O_8
REMARK    6  A    between atoms: C_7  and  C_9
REMARK    7  A    between atoms: C_9  and  N_10
REMARK    8  A    between atoms: N_10  and  C_11
REMARK    9  A    between atoms: C_11  and  C_12
REMARK   10  A    between atoms: C_11  and  C_13
REMARK   11  A    between atoms: C_11  and  C_14
REMARK                            x       y       z     vdW  Elec       q    Type
REMARK                         _______ _______ _______ _____ _____    ______ ____
ROOT
ATOM      1  C   UNL     1      -0.466   0.391   0.801  0.00  0.00    +0.261 C 
ENDROOT
BRANCH   1   2
ATOM      2  O   UNL     1      -1.693   0.083   1.466  0.00  0.00    -0.488 OA
BRANCH   2   6
ATOM      3  C   UNL     1      -4.615  -0.140  -2.573  0.00  0.00    +0.044 C 
ATOM      4  C   UNL     1      -4.388  -0.337  -1.103  0.00  0.00    -0.047 A 
ATOM      5  C   UNL     1      -3.139  -0.040  -0.535  0.00  0.00    +0.050 A 
ATOM      6  C   UNL     1      -2.928  -0.193   0.851  0.00  0.00    +0.139 A 
ATOM      7  C   UNL     1      -3.992  -0.623   1.660  0.00  0.00    +0.083 A 
ATOM      8 CL   UNL     1      -3.772  -0.821   3.392  0.00  0.00    -0.080 Cl
ATOM      9  C   UNL     1      -5.241  -0.899   1.096  0.00  0.00    +0.024 A 
ATOM     10  C   UNL     1      -5.442  -0.752  -0.277  0.00  0.00    +0.005 A 
ENDBRANCH   2   6
ENDBRANCH   1   2
BRANCH   1  11
ATOM     11  C   UNL     1       0.252  -0.892   0.348  0.00  0.00    +0.166 C 
BRANCH  11  12
ATOM     12  O   UNL     1      -0.550  -1.580  -0.575  0.00  0.00    -0.387 OA
ATOM     13  H   UNL     1      -0.229  -2.520  -0.592  0.00  0.00    +0.210 HD
ENDBRANCH  11  12
BRANCH  11  14
ATOM     14  C   UNL     1       1.608  -0.566  -0.299  0.00  0.00    +0.116 C 
BRANCH  14  15
ATOM     15  N   UNL     1       2.518   0.029   0.696  0.00  0.00    -0.309 NA
ATOM     16  H   UNL     1       2.821  -0.741   1.340  0.00  0.00    +0.123 HD
BRANCH  15  17
ATOM     17  C   UNL     1       3.721   0.696   0.137  0.00  0.00    +0.011 C 
ATOM     18  C   UNL     1       4.513  -0.239  -0.806  0.00  0.00    +0.027 C 
ATOM     19  C   UNL     1       4.637   1.091   1.315  0.00  0.00    +0.027 C 
ATOM     20  C   UNL     1       3.326   1.989  -0.609  0.00  0.00    +0.027 C 
ENDBRANCH  15  17
ENDBRANCH  14  15
ENDBRANCH  11  14
ENDBRANCH   1  11
TORSDOF 7
