REMARK  Name = 
REMARK  8 active torsions:
REMARK  status: ('A' for Active; 'I' for Inactive)
REMARK    1  A    between atoms: C_1  and  C_2
REMARK    2  A    between atoms: C_2  and  N_3
REMARK    3  A    between atoms: C_2  and  C_8
REMARK    4  A    between atoms: N_3  and  C_4
REMARK    5  A    between atoms: C_4  and  C_5
REMARK    6  A    between atoms: C_4  and  C_6
REMARK    7  A    between atoms: C_4  and  C_7
REMARK    8  A    between atoms: C_8  and  C_10
REMARK                            x       y       z     vdW  Elec       q    Type
REMARK                         _______ _______ _______ _____ _____    ______ ____
ROOT
ATOM      1  C   UNL     1       0.665  -1.275  -0.945  0.00  0.00    +0.180 C 
ATOM      2  O   UNL     1       0.736  -2.517  -1.156  0.00  0.00    -0.290 OA
ENDROOT
BRANCH   1   3
ATOM      3  C   UNL     1       1.789  -0.607  -0.227  0.00  0.00    +0.020 A 
ATOM      4  C   UNL     1       2.031   0.778  -0.331  0.00  0.00    +0.031 A 
ATOM      5  C   UNL     1       3.090   1.371   0.366  0.00  0.00    +0.042 A 
ATOM      6 CL   UNL     1       3.373   3.097   0.229  0.00  0.00    -0.084 Cl
ATOM      7  C   UNL     1       3.924   0.590   1.169  0.00  0.00    +0.020 A 
ATOM      8  C   UNL     1       3.703  -0.784   1.274  0.00  0.00    +0.002 A 
ATOM      9  C   UNL     1       2.646  -1.380   0.581  0.00  0.00    +0.011 A 
ENDBRANCH   1   3
BRANCH   1  11
ATOM     10  C   UNL     1      -0.325  -0.053  -2.880  0.00  0.00    +0.032 C 
ATOM     11  C   UNL     1      -0.568  -0.551  -1.447  0.00  0.00    +0.123 C 
BRANCH  11  12
ATOM     12  N   UNL     1      -0.942   0.560  -0.539  0.00  0.00    -0.302 NA
ATOM     13  H   UNL     1      -1.325   1.365  -1.091  0.00  0.00    +0.123 HD
BRANCH  12  14
ATOM     14  C   UNL     1      -1.902   0.235   0.547  0.00  0.00    +0.011 C 
ATOM     15  C   UNL     1      -1.946   1.446   1.500  0.00  0.00    +0.027 C 
ATOM     16  C   UNL     1      -1.452  -0.995   1.367  0.00  0.00    +0.027 C 
ATOM     17  C   UNL     1      -3.325   0.003  -0.013  0.00  0.00    +0.027 C 
ENDBRANCH  12  14
ENDBRANCH  11  12
ENDBRANCH   1  11
TORSDOF 4
