REMARK  Name = 
REMARK  5 active torsions:
REMARK  status: ('A' for Active; 'I' for Inactive)
REMARK    1  A    between atoms: N_12  and  C_13
REMARK    2  A    between atoms: C_13  and  C_14
REMARK    3  A    between atoms: C_14  and  C_15
REMARK    4  A    between atoms: C_15  and  C_16
REMARK    5  A    between atoms: C_16  and  N_17
REMARK                            x       y       z     vdW  Elec       q    Type
REMARK                         _______ _______ _______ _____ _____    ______ ____
ROOT
ATOM      1  C   UNL     1      -0.941  -1.063  -0.209  0.00  0.00    +0.021 C 
ENDROOT
BRANCH   1   2
ATOM      2  C   UNL     1      -1.846  -2.237   0.180  0.00  0.00    +0.116 C 
BRANCH   2  14
ATOM      3  O   UNL     1      -3.685  -2.236  -1.968  0.00  0.00    -0.275 OA
ATOM      4  C   UNL     1      -4.091  -1.761  -0.872  0.00  0.00    +0.222 C 
ATOM      5  C   UNL     1      -5.491  -1.218  -0.792  0.00  0.00    +0.103 C 
ATOM      6  C   UNL     1      -5.620  -0.122   0.299  0.00  0.00    -0.013 C 
ATOM      7  C   UNL     1      -7.080   0.340   0.415  0.00  0.00    +0.008 C 
ATOM      8  C   UNL     1      -7.258   1.444  -0.623  0.00  0.00    +0.001 C 
ATOM      9  C   UNL     1      -5.864   1.981  -0.938  0.00  0.00    +0.001 C 
ATOM     10  C   UNL     1      -4.877   1.164  -0.110  0.00  0.00    +0.008 C 
ATOM     11  C   UNL     1      -5.113  -0.683   1.647  0.00  0.00    +0.103 C 
ATOM     12  C   UNL     1      -3.711  -1.209   1.530  0.00  0.00    +0.222 C 
ATOM     13  O   UNL     1      -2.963  -1.178   2.545  0.00  0.00    -0.275 OA
ATOM     14  N   UNL     1      -3.240  -1.784   0.293  0.00  0.00    -0.242 N 
ENDBRANCH   2  14
ENDBRANCH   1   2
BRANCH   1  15
ATOM     15  C   UNL     1       0.532  -1.486  -0.250  0.00  0.00    +0.017 C 
BRANCH  15  16
ATOM     16  C   UNL     1       1.432  -0.304  -0.636  0.00  0.00    +0.084 C 
BRANCH  16  17
ATOM     17  N   UNL     1       2.853  -0.713  -0.635  0.00  0.00    -0.299 NA
ATOM     18  C   UNL     1       3.438  -0.710   0.735  0.00  0.00    +0.103 C 
ATOM     19  C   UNL     1       4.427   0.438   0.981  0.00  0.00    +0.123 C 
ATOM     20  N   UNL     1       5.473   0.433  -0.050  0.00  0.00    -0.297 N 
ATOM     21  C   UNL     1       5.133  -0.028  -1.403  0.00  0.00    +0.123 C 
ATOM     22  C   UNL     1       3.622   0.071  -1.631  0.00  0.00    +0.103 C 
ATOM     23  C   UNL     1       6.795   0.932   0.239  0.00  0.00    +0.218 A 
ATOM     24  N   UNL     1       7.054   1.551   1.426  0.00  0.00    -0.223 NA
ATOM     25  C   UNL     1       8.291   2.038   1.712  0.00  0.00    +0.116 A 
ATOM     26  C   UNL     1       9.320   1.911   0.781  0.00  0.00    +0.039 A 
ATOM     27  C   UNL     1       9.046   1.274  -0.428  0.00  0.00    +0.116 A 
ATOM     28  N   UNL     1       7.796   0.798  -0.676  0.00  0.00    -0.223 NA
ENDBRANCH  16  17
ENDBRANCH  15  16
ENDBRANCH   1  15
TORSDOF 5
