REMARK  Name = 
REMARK  9 active torsions:
REMARK  status: ('A' for Active; 'I' for Inactive)
REMARK    1  A    between atoms: C_1  and  S_2
REMARK    2  A    between atoms: S_2  and  O_5
REMARK    3  A    between atoms: O_5  and  C_6
REMARK    4  A    between atoms: C_6  and  C_7
REMARK    5  A    between atoms: C_7  and  C_8
REMARK    6  A    between atoms: C_8  and  C_9
REMARK    7  A    between atoms: C_9  and  O_10
REMARK    8  A    between atoms: O_10  and  S_11
REMARK    9  A    between atoms: S_11  and  C_12
REMARK                            x       y       z     vdW  Elec       q    Type
REMARK                         _______ _______ _______ _____ _____    ______ ____
ROOT
ATOM      1  C   UNL     1      -0.404  -0.615  -1.734  0.00  0.00    +0.033 C 
ENDROOT
BRANCH   1   2
ATOM      2  C   UNL     1      -1.131   0.135  -0.615  0.00  0.00    +0.193 C 
BRANCH   2   3
ATOM      3  O   UNL     1      -1.917   1.154  -1.185  0.00  0.00    -0.239 OA
BRANCH   3   5
ATOM      4  C   UNL     1      -3.628   1.127   1.125  0.00  0.00    +0.228 C 
ATOM      5  S   UNL     1      -2.580   2.098   0.059  0.00  0.00    +0.079 S 
ATOM      6  O   UNL     1      -1.484   2.736   0.868  0.00  0.00    -0.147 OA
ATOM      7  O   UNL     1      -3.413   3.183  -0.562  0.00  0.00    -0.147 OA
ENDBRANCH   3   5
ENDBRANCH   2   3
ENDBRANCH   1   2
BRANCH   1   8
ATOM      8  C   UNL     1       0.335  -1.870  -1.237  0.00  0.00    +0.033 C 
BRANCH   8   9
ATOM      9  C   UNL     1       1.466  -1.565  -0.249  0.00  0.00    +0.193 C 
BRANCH   9  10
ATOM     10  O   UNL     1       2.375  -0.659  -0.830  0.00  0.00    -0.239 OA
BRANCH  10  11
ATOM     11  S   UNL     1       3.396  -0.050   0.379  0.00  0.00    +0.079 S 
ATOM     12  C   UNL     1       2.552   1.212   1.312  0.00  0.00    +0.228 C 
ATOM     13  O   UNL     1       4.601   0.562  -0.276  0.00  0.00    -0.147 OA
ATOM     14  O   UNL     1       3.852  -1.148   1.301  0.00  0.00    -0.147 OA
ENDBRANCH  10  11
ENDBRANCH   9  10
ENDBRANCH   8   9
ENDBRANCH   1   8
TORSDOF 7
