REMARK  Name = 
REMARK  6 active torsions:
REMARK  status: ('A' for Active; 'I' for Inactive)
REMARK    1  A    between atoms: C_1  and  C_2
REMARK    2  A    between atoms: C_2  and  C_3
REMARK    3  A    between atoms: C_3  and  C_4
REMARK    4  A    between atoms: C_3  and  C_5
REMARK    5  A    between atoms: C_5  and  C_6
REMARK    6  A    between atoms: C_6  and  C_7
REMARK                            x       y       z     vdW  Elec       q    Type
REMARK                         _______ _______ _______ _____ _____    ______ ____
ROOT
ATOM      1  C   UNL     1      -0.407   0.365  -0.260  0.00  0.00    +0.126 C 
ATOM      2  C   UNL     1      -1.348  -0.695  -0.837  0.00  0.00    +0.236 C 
ATOM      3  O   UNL     1      -1.655  -0.648  -2.061  0.00  0.00    -0.274 OA
ATOM      4  N   UNL     1      -1.858  -1.773  -0.048  0.00  0.00    -0.239 N 
ATOM      5  C   UNL     1      -1.584  -1.865   1.345  0.00  0.00    +0.312 C 
ATOM      6  O   UNL     1      -2.016  -2.844   2.009  0.00  0.00    -0.252 OA
ATOM      7  N   UNL     1      -0.833  -0.843   1.990  0.00  0.00    -0.239 N 
ATOM      8  C   UNL     1      -0.312   0.273   1.263  0.00  0.00    +0.236 C 
ATOM      9  O   UNL     1       0.246   1.201   1.910  0.00  0.00    -0.274 OA
ATOM     10  H   UNL     1      -2.447  -2.507  -0.502  0.00  0.00    +0.159 HD
ATOM     11  H   UNL     1      -0.681  -0.897   3.022  0.00  0.00    +0.159 HD
ENDROOT
BRANCH   1  12
ATOM     12  C   UNL     1       1.013   0.160  -0.930  0.00  0.00    +0.010 C 
ATOM     13  C   UNL     1       2.033   1.288  -0.661  0.00  0.00    +0.009 C 
BRANCH  12  15
ATOM     14  C   UNL     1       2.417  -1.431   0.610  0.00  0.00    +0.004 C 
ATOM     15  C   UNL     1       1.649  -1.247  -0.704  0.00  0.00    +0.001 C 
ENDBRANCH  12  15
ENDBRANCH   1  12
BRANCH   1  16
ATOM     16  C   UNL     1      -0.985   1.770  -0.634  0.00  0.00    +0.022 C 
ATOM     17  C   UNL     1      -2.421   2.008  -0.146  0.00  0.00    +0.005 C 
ENDBRANCH   1  16
TORSDOF 3
