REMARK  Name = 
REMARK  6 active torsions:
REMARK  status: ('A' for Active; 'I' for Inactive)
REMARK    1  A    between atoms: C_1  and  C_2
REMARK    2  A    between atoms: C_2  and  C_3
REMARK    3  A    between atoms: C_2  and  C_4
REMARK    4  A    between atoms: C_4  and  C_5
REMARK    5  A    between atoms: C_5  and  C_6
REMARK    6  A    between atoms: C_6  and  C_7
REMARK                            x       y       z     vdW  Elec       q    Type
REMARK                         _______ _______ _______ _____ _____    ______ ____
ROOT
ATOM      1  C   UNL     1       0.411   0.346  -0.430  0.00  0.00    +0.127 C 
ATOM      2  C   UNL     1       0.604   0.792   1.018  0.00  0.00    +0.236 C 
ATOM      3  O   UNL     1       0.827  -0.064   1.917  0.00  0.00    -0.274 OA
ATOM      4  N   UNL     1       0.465   2.163   1.400  0.00  0.00    -0.239 N 
ATOM      5  C   UNL     1       0.451   3.196   0.421  0.00  0.00    +0.312 C 
ATOM      6  O   UNL     1       0.324   4.399   0.775  0.00  0.00    -0.252 OA
ATOM      7  N   UNL     1       0.608   2.870  -0.956  0.00  0.00    -0.239 N 
ATOM      8  C   UNL     1       0.682   1.508  -1.389  0.00  0.00    +0.236 C 
ATOM      9  O   UNL     1       0.876   1.275  -2.614  0.00  0.00    -0.274 OA
ATOM     10  H   UNL     1       0.440   2.415   2.414  0.00  0.00    +0.159 HD
ATOM     11  H   UNL     1       0.680   3.639  -1.660  0.00  0.00    +0.159 HD
ENDROOT
BRANCH   1  12
ATOM     12  C   UNL     1      -1.076  -0.084  -0.677  0.00  0.00    +0.029 C 
BRANCH  12  14
ATOM     13  C   UNL     1      -1.272  -2.320   0.605  0.00  0.00    +0.007 C 
ATOM     14  C   UNL     1      -1.820  -0.896   0.425  0.00  0.00    -0.016 C 
ATOM     15  C   UNL     1      -3.317  -0.968   0.080  0.00  0.00    +0.007 C 
ENDBRANCH  12  14
ENDBRANCH   1  12
BRANCH   1  16
ATOM     16  C   UNL     1       1.399  -0.815  -0.774  0.00  0.00    +0.052 C 
BRANCH  16  17
ATOM     17  C   UNL     1       2.851  -0.389  -0.706  0.00  0.00    -0.033 C 
ATOM     18  C   UNL     1       3.648  -0.692   0.324  0.00  0.00    +0.004 C 
ENDBRANCH  16  17
ENDBRANCH   1  16
TORSDOF 4
