REMARK  Name = 
REMARK  9 active torsions:
REMARK  status: ('A' for Active; 'I' for Inactive)
REMARK    1  A    between atoms: C_1  and  N_2
REMARK    2  A    between atoms: N_2  and  C_3
REMARK    3  A    between atoms: N_2  and  C_14
REMARK    4  A    between atoms: C_3  and  C_4
REMARK    5  A    between atoms: C_7  and  C_10
REMARK    6  A    between atoms: C_10  and  C_11
REMARK    7  A    between atoms: C_10  and  C_12
REMARK    8  A    between atoms: C_10  and  C_13
REMARK    9  A    between atoms: C_14  and  C_15
REMARK                            x       y       z     vdW  Elec       q    Type
REMARK                         _______ _______ _______ _____ _____    ______ ____
ROOT
ATOM      1  C   UNL     1       1.191  -0.515  -1.218  0.00  0.00    +0.105 C 
ATOM      2  N   UNL     1       1.101   0.841  -0.641  0.00  0.00    -0.297 NA
ENDROOT
BRANCH   2   3
ATOM      3  C   UNL     1      -0.004   1.594  -1.274  0.00  0.00    +0.119 C 
BRANCH   3   4
ATOM      4  C   UNL     1      -1.337   1.103  -0.773  0.00  0.00    -0.033 A 
ATOM      5  C   UNL     1      -2.224   0.442  -1.631  0.00  0.00    +0.005 A 
ATOM      6  C   UNL     1      -3.451  -0.025  -1.155  0.00  0.00    +0.004 A 
ATOM      7  C   UNL     1      -3.829   0.154   0.194  0.00  0.00    -0.042 A 
ATOM      8  C   UNL     1      -2.920   0.822   1.048  0.00  0.00    +0.004 A 
ATOM      9  C   UNL     1      -1.693   1.288   0.568  0.00  0.00    +0.005 A 
BRANCH   7  10
ATOM     10  C   UNL     1      -5.193  -0.380   0.680  0.00  0.00    -0.013 C 
ATOM     11  C   UNL     1      -6.326   0.293  -0.125  0.00  0.00    +0.015 C 
ATOM     12  C   UNL     1      -5.252  -1.908   0.471  0.00  0.00    +0.015 C 
ATOM     13  C   UNL     1      -5.454  -0.101   2.180  0.00  0.00    +0.015 C 
ENDBRANCH   7  10
ENDBRANCH   3   4
ENDBRANCH   2   3
BRANCH   2  14
ATOM     14  C   UNL     1       2.380   1.563  -0.809  0.00  0.00    +0.120 C 
BRANCH  14  15
ATOM     15  C   UNL     1       3.430   1.032   0.149  0.00  0.00    -0.026 A 
ATOM     16  C   UNL     1       3.311   1.413   1.498  0.00  0.00    +0.005 A 
ATOM     17  C   UNL     1       4.231   0.982   2.451  0.00  0.00    +0.001 A 
ATOM     18  C   UNL     1       5.287   0.155   2.083  0.00  0.00    +0.008 A 
ATOM     19  C   UNL     1       5.428  -0.263   0.754  0.00  0.00    -0.018 A 
ATOM     20  C   UNL     1       6.491  -1.111   0.403  0.00  0.00    +0.008 A 
ATOM     21  C   UNL     1       6.636  -1.549  -0.912  0.00  0.00    +0.001 A 
ATOM     22  C   UNL     1       5.723  -1.153  -1.886  0.00  0.00    +0.001 A 
ATOM     23  C   UNL     1       4.660  -0.307  -1.557  0.00  0.00    +0.009 A 
ATOM     24  C   UNL     1       4.494   0.163  -0.234  0.00  0.00    -0.013 A 
ENDBRANCH  14  15
ENDBRANCH   2  14
TORSDOF 5
