REMARK  Name = 
REMARK  6 active torsions:
REMARK  status: ('A' for Active; 'I' for Inactive)
REMARK    1  A    between atoms: C_1  and  C_2
REMARK    2  A    between atoms: C_2  and  C_3
REMARK    3  A    between atoms: C_3  and  C_4
REMARK    4  A    between atoms: C_4  and  C_5
REMARK    5  A    between atoms: C_5  and  C_6
REMARK    6  A    between atoms: C_6  and  C_7
REMARK                            x       y       z     vdW  Elec       q    Type
REMARK                         _______ _______ _______ _____ _____    ______ ____
ROOT
ATOM      1  C   UNL     1      -0.619   0.522  -0.233  0.00  0.00    +0.123 C 
ATOM      2  C   UNL     1      -1.217  -0.393  -1.297  0.00  0.00    +0.235 C 
ATOM      3  O   UNL     1      -1.368   0.043  -2.471  0.00  0.00    -0.274 OA
ATOM      4  N   UNL     1      -1.619  -1.734  -1.005  0.00  0.00    -0.239 N 
ATOM      5  C   UNL     1      -1.485  -2.282   0.302  0.00  0.00    +0.312 C 
ATOM      6  O   UNL     1      -1.854  -3.465   0.529  0.00  0.00    -0.252 OA
ATOM      7  N   UNL     1      -0.933  -1.495   1.352  0.00  0.00    -0.239 N 
ATOM      8  C   UNL     1      -0.491  -0.154   1.127  0.00  0.00    +0.235 C 
ATOM      9  O   UNL     1      -0.002   0.492   2.094  0.00  0.00    -0.274 OA
ATOM     10  H   UNL     1      -2.023  -2.324  -1.767  0.00  0.00    +0.159 HD
ATOM     11  H   UNL     1      -0.839  -1.911   2.306  0.00  0.00    +0.159 HD
ENDROOT
BRANCH   1  12
ATOM     12  C   UNL     1      -1.542   1.768  -0.075  0.00  0.00    +0.022 C 
ATOM     13  C   UNL     1      -2.964   1.436   0.397  0.00  0.00    +0.005 C 
ENDBRANCH   1  12
BRANCH   1  14
ATOM     14  C   UNL     1       0.787   1.015  -0.706  0.00  0.00    +0.025 C 
BRANCH  14  15
ATOM     15  C   UNL     1       1.798  -0.079  -1.138  0.00  0.00    +0.001 C 
BRANCH  15  17
ATOM     16  C   UNL     1       3.324   0.004   0.918  0.00  0.00    +0.004 C 
ATOM     17  C   UNL     1       2.464  -0.868   0.003  0.00  0.00    -0.003 C 
ENDBRANCH  15  17
ENDBRANCH  14  15
ENDBRANCH   1  14
TORSDOF 4
