REMARK  Name = 
REMARK  7 active torsions:
REMARK  status: ('A' for Active; 'I' for Inactive)
REMARK    1  A    between atoms: C_5  and  C_6
REMARK    2  A    between atoms: C_6  and  C_7
REMARK    3  A    between atoms: C_7  and  C_8
REMARK    4  A    between atoms: C_8  and  C_9
REMARK    5  A    between atoms: C_8  and  S_15
REMARK    6  A    between atoms: C_9  and  N_10
REMARK    7  A    between atoms: S_15  and  C_16
REMARK                            x       y       z     vdW  Elec       q    Type
REMARK                         _______ _______ _______ _____ _____    ______ ____
ROOT
ATOM      1  C   UNL     1       0.432   0.963  -0.137  0.00  0.00    +0.071 C 
ENDROOT
BRANCH   1   2
ATOM      2  C   UNL     1      -0.794   0.091   0.213  0.00  0.00    +0.021 C 
BRANCH   2   3
ATOM      3  C   UNL     1      -1.707  -0.228  -0.984  0.00  0.00    +0.036 C 
BRANCH   3   8
ATOM      4 CL   UNL     1      -6.361  -3.663   0.851  0.00  0.00    -0.084 Cl
ATOM      5  C   UNL     1      -5.019  -2.670   0.313  0.00  0.00    +0.041 A 
ATOM      6  C   UNL     1      -3.931  -3.259  -0.341  0.00  0.00    +0.020 A 
ATOM      7  C   UNL     1      -2.860  -2.469  -0.770  0.00  0.00    +0.005 A 
ATOM      8  C   UNL     1      -2.870  -1.081  -0.551  0.00  0.00    -0.047 A 
ATOM      9  C   UNL     1      -3.964  -0.498   0.110  0.00  0.00    +0.005 A 
ATOM     10  C   UNL     1      -5.034  -1.290   0.538  0.00  0.00    +0.020 A 
ENDBRANCH   3   8
ENDBRANCH   2   3
ENDBRANCH   1   2
BRANCH   1  11
ATOM     11  C   UNL     1       0.019   2.326  -0.724  0.00  0.00    +0.137 C 
BRANCH  11  12
ATOM     12  N   UNL     1       1.141   3.264  -0.705  0.00  0.00    -0.336 N 
ATOM     13  C   UNL     1       1.561   3.997   0.339  0.00  0.00    +0.106 A 
ATOM     14  C   UNL     1       2.662   4.716  -0.068  0.00  0.00    +0.130 A 
ATOM     15  N   UNL     1       2.937   4.432  -1.359  0.00  0.00    -0.244 NA
ATOM     16  C   UNL     1       1.989   3.540  -1.714  0.00  0.00    +0.199 A 
ENDBRANCH  11  12
ENDBRANCH   1  11
BRANCH   1  17
ATOM     17  S   UNL     1       1.578   0.103  -1.291  0.00  0.00    -0.117 S 
BRANCH  17  18
ATOM     18  C   UNL     1       2.425  -0.873  -0.027  0.00  0.00    +0.045 A 
ATOM     19  C   UNL     1       3.469  -0.304   0.732  0.00  0.00    +0.056 A 
ATOM     20 CL   UNL     1       4.007   1.349   0.470  0.00  0.00    -0.082 Cl
ATOM     21  C   UNL     1       4.110  -1.063   1.718  0.00  0.00    +0.021 A 
ATOM     22  C   UNL     1       3.735  -2.388   1.942  0.00  0.00    +0.003 A 
ATOM     23  C   UNL     1       2.726  -2.968   1.172  0.00  0.00    +0.021 A 
ATOM     24  C   UNL     1       2.075  -2.223   0.183  0.00  0.00    +0.056 A 
ATOM     25 CL   UNL     1       0.866  -3.028  -0.807  0.00  0.00    -0.082 Cl
ENDBRANCH  17  18
ENDBRANCH   1  17
TORSDOF 7
