REMARK  Name = 
REMARK  4 active torsions:
REMARK  status: ('A' for Active; 'I' for Inactive)
REMARK    1  A    between atoms: C_6  and  O_7
REMARK    2  A    between atoms: C_15  and  O_16
REMARK    3  A    between atoms: N_19  and  C_20
REMARK    4  A    between atoms: C_20  and  C_21
REMARK                            x       y       z     vdW  Elec       q    Type
REMARK                         _______ _______ _______ _____ _____    ______ ____
ROOT
ATOM      1  C   UNL     1       0.498   0.061  -0.937  0.00  0.00    +0.093 C 
ATOM      2  C   UNL     1      -0.223   1.397  -1.235  0.00  0.00    +0.057 C 
ATOM      3  C   UNL     1      -1.496   1.597  -0.455  0.00  0.00    -0.042 A 
ATOM      4  C   UNL     1      -2.095   0.552   0.294  0.00  0.00    -0.032 A 
ATOM      5  C   UNL     1      -3.194   0.878   1.123  0.00  0.00    +0.050 A 
ATOM      6  C   UNL     1      -3.764   2.153   1.103  0.00  0.00    +0.117 A 
ATOM      7  C   UNL     1      -3.220   3.143   0.282  0.00  0.00    +0.045 A 
ATOM      8  C   UNL     1      -2.088   2.870  -0.481  0.00  0.00    +0.007 A 
ATOM      9  C   UNL     1      -1.442  -0.848   0.380  0.00  0.00    +0.027 C 
ATOM     10  C   UNL     1      -2.565  -1.958   0.460  0.00  0.00    +0.014 C 
ATOM     11  C   UNL     1      -2.438  -3.099  -0.562  0.00  0.00    +0.001 C 
ATOM     12  C   UNL     1      -2.259  -2.577  -2.001  0.00  0.00    +0.003 C 
ATOM     13  C   UNL     1      -1.337  -1.341  -2.117  0.00  0.00    +0.037 C 
ATOM     14  C   UNL     1      -0.490  -1.122  -0.836  0.00  0.00    +0.091 C 
ATOM     15  C   UNL     1      -0.559  -0.842   1.657  0.00  0.00    +0.030 C 
ATOM     16  C   UNL     1       0.570   0.211   1.559  0.00  0.00    +0.086 C 
ATOM     17  N   UNL     1       1.337   0.088   0.295  0.00  0.00    -0.296 NA
ENDROOT
BRANCH   6  18
ATOM     18  O   UNL     1      -4.867   2.426   1.908  0.00  0.00    -0.507 OA
ATOM     19  H   UNL     1      -5.303   3.341   1.919  0.00  0.00    +0.292 HD
ENDBRANCH   6  18
BRANCH  14  20
ATOM     20  O   UNL     1       0.275  -2.288  -0.595  0.00  0.00    -0.386 OA
ATOM     21  H   UNL     1       0.849  -2.454  -1.389  0.00  0.00    +0.210 HD
ENDBRANCH  14  20
BRANCH  17  22
ATOM     22  C   UNL     1       2.461   1.046   0.223  0.00  0.00    +0.088 C 
BRANCH  22  23
ATOM     23  C   UNL     1       3.701   0.455   0.914  0.00  0.00    +0.003 C 
ATOM     24  C   UNL     1       4.979   1.256   0.666  0.00  0.00    +0.005 C 
ATOM     25  C   UNL     1       5.580   0.066  -0.071  0.00  0.00    +0.001 C 
ATOM     26  C   UNL     1       4.308  -0.735   0.173  0.00  0.00    +0.005 C 
ENDBRANCH  22  23
ENDBRANCH  17  22
TORSDOF 4
