REMARK  Name = 
REMARK  27 active torsions:
REMARK  status: ('A' for Active; 'I' for Inactive)
REMARK    1  A    between atoms: C_1  and  O_2
REMARK    2  A    between atoms: C_1  and  C_3
REMARK    3  A    between atoms: C_1  and  C_18
REMARK    4  A    between atoms: C_3  and  N_4
REMARK    5  A    between atoms: C_3  and  C_12
REMARK    6  A    between atoms: C_5  and  O_7
REMARK    7  A    between atoms: O_7  and  C_8
REMARK    8  A    between atoms: C_8  and  C_9
REMARK    9  A    between atoms: C_8  and  C_10
REMARK   10  A    between atoms: C_8  and  C_11
REMARK   11  A    between atoms: C_18  and  O_20
REMARK   12  A    between atoms: O_20  and  C_21
REMARK   13  A    between atoms: C_23  and  O_24
REMARK   14  A    between atoms: C_25  and  O_26
REMARK   15  A    between atoms: O_26  and  C_27
REMARK   16  A    between atoms: C_27  and  C_29
REMARK   17  A    between atoms: C_36  and  O_57
REMARK   18  A    between atoms: C_41  and  O_42
REMARK   19  A    between atoms: O_42  and  C_43
REMARK   20  A    between atoms: C_44  and  C_45
REMARK   21  A    between atoms: C_48  and  O_49
REMARK   22  A    between atoms: O_49  and  C_50
REMARK   23  A    between atoms: C_52  and  C_53
REMARK   24  A    between atoms: C_54  and  C_55
REMARK   25  A    between atoms: C_54  and  C_56
REMARK   26  A    between atoms: O_57  and  C_58
REMARK   27  A    between atoms: C_58  and  C_59
REMARK                            x       y       z     vdW  Elec       q    Type
REMARK                         _______ _______ _______ _____ _____    ______ ____
ROOT
ATOM      1  C   UNL     1       0.625   0.467   2.309  0.00  0.00    +0.205 C 
ATOM      2  C   UNL     1      -0.591   0.649   1.376  0.00  0.00    +0.088 C 
ATOM      3  C   UNL     1      -1.997   0.430   2.086  0.00  0.00    +0.116 C 
ATOM      4  C   UNL     1      -3.088  -0.058   0.979  0.00  0.00    +0.217 C 
ATOM      5  C   UNL     1      -2.814  -1.237  -0.109  0.00  0.00    +0.097 C 
ATOM      6  C   UNL     1      -3.789  -1.161  -1.385  0.00  0.00    +0.170 C 
ATOM      7  C   UNL     1      -5.155  -1.871  -1.359  0.00  0.00    +0.211 C 
ATOM      8  O   UNL     1      -4.716  -2.905  -2.221  0.00  0.00    -0.368 OA
ATOM      9  C   UNL     1      -3.492  -2.238  -2.424  0.00  0.00    +0.167 C 
ATOM     10  C   UNL     1      -2.258  -3.098  -2.175  0.00  0.00    +0.068 C 
ATOM     11  C   UNL     1      -2.265  -3.778  -0.807  0.00  0.00    +0.134 C 
ATOM     12  C   UNL     1      -2.560  -2.754   0.410  0.00  0.00    +0.065 C 
ATOM     13  C   UNL     1      -3.809  -3.287   1.187  0.00  0.00    +0.022 C 
ATOM     14  C   UNL     1      -1.232  -2.743   1.223  0.00  0.00    +0.175 C 
ATOM     15  O   UNL     1      -0.220  -2.535   0.565  0.00  0.00    -0.294 OA
ATOM     16  C   UNL     1      -0.965  -2.867   2.722  0.00  0.00    +0.211 C 
ATOM     17  C   UNL     1      -0.702  -1.444   3.231  0.00  0.00    -0.023 C 
ATOM     18  C   UNL     1       0.532  -0.905   2.979  0.00  0.00    -0.030 C 
ATOM     19  C   UNL     1       1.792  -1.731   3.135  0.00  0.00    +0.043 C 
ATOM     20  C   UNL     1      -1.853  -0.444   3.424  0.00  0.00    +0.022 C 
ATOM     21  C   UNL     1      -3.191  -1.066   3.886  0.00  0.00    +0.018 C 
ATOM     22  C   UNL     1      -1.492   0.439   4.682  0.00  0.00    +0.018 C 
ENDROOT
BRANCH   3  23
ATOM     23  O   UNL     1      -2.474   1.680   2.559  0.00  0.00    -0.384 OA
ATOM     24  H   UNL     1      -1.765   2.377   2.533  0.00  0.00    +0.210 HD
ENDBRANCH   3  23
BRANCH  11  25
ATOM     25  O   UNL     1      -3.169  -4.876  -0.880  0.00  0.00    -0.379 OA
ATOM     26  C   UNL     1      -2.652  -6.005  -0.205  0.00  0.00    +0.194 C 
ENDBRANCH  11  25
BRANCH  16  27
ATOM     27  O   UNL     1      -1.962  -3.557   3.444  0.00  0.00    -0.368 OA
ATOM     28  C   UNL     1      -1.490  -3.947   4.717  0.00  0.00    +0.195 C 
ENDBRANCH  16  27
BRANCH   1  29
ATOM     29  O   UNL     1       1.837   0.567   1.556  0.00  0.00    -0.455 OA
BRANCH  29  30
ATOM     30  C   UNL     1       2.383   1.785   1.140  0.00  0.00    +0.339 C 
ATOM     31  O   UNL     1       1.707   2.852   1.212  0.00  0.00    -0.248 OA
BRANCH  30  32
ATOM     32  C   UNL     1       3.827   1.834   0.719  0.00  0.00    +0.247 C 
BRANCH  32  33
ATOM     33  O   UNL     1       4.304   3.155   0.770  0.00  0.00    -0.379 OA
ATOM     34  H   UNL     1       4.416   3.385   1.730  0.00  0.00    +0.211 HD
ENDBRANCH  32  33
BRANCH  32  35
ATOM     35  C   UNL     1       4.040   1.285  -0.709  0.00  0.00    +0.146 C 
BRANCH  35  36
ATOM     36  C   UNL     1       3.501  -0.122  -0.872  0.00  0.00    -0.024 A 
ATOM     37  C   UNL     1       4.080  -1.203  -0.182  0.00  0.00    +0.005 A 
ATOM     38  C   UNL     1       3.549  -2.491  -0.316  0.00  0.00    +0.000 A 
ATOM     39  C   UNL     1       2.435  -2.711  -1.130  0.00  0.00    +0.000 A 
ATOM     40  C   UNL     1       1.847  -1.641  -1.812  0.00  0.00    +0.000 A 
ATOM     41  C   UNL     1       2.373  -0.353  -1.680  0.00  0.00    +0.005 A 
ENDBRANCH  35  36
BRANCH  35  42
ATOM     42  N   UNL     1       5.477   1.301  -1.019  0.00  0.00    -0.271 N 
ATOM     43  C   UNL     1       6.023   1.821  -2.240  0.00  0.00    +0.401 C 
ATOM     44  O   UNL     1       5.264   2.103  -3.207  0.00  0.00    -0.226 OA
ATOM     45  H   UNL     1       6.152   0.924  -0.317  0.00  0.00    +0.153 HD
BRANCH  43  46
ATOM     46  O   UNL     1       7.412   1.995  -2.332  0.00  0.00    -0.445 OA
BRANCH  46  47
ATOM     47  C   UNL     1       8.135   2.532  -3.446  0.00  0.00    +0.107 C 
ATOM     48  C   UNL     1       7.965   1.634  -4.686  0.00  0.00    +0.055 C 
ATOM     49  C   UNL     1       7.684   3.975  -3.749  0.00  0.00    +0.055 C 
ATOM     50  C   UNL     1       9.617   2.551  -3.049  0.00  0.00    +0.055 C 
ENDBRANCH  46  47
ENDBRANCH  43  46
ENDBRANCH  35  42
ENDBRANCH  32  35
ENDBRANCH  30  32
ENDBRANCH  29  30
ENDBRANCH   1  29
BRANCH   4  51
ATOM     51  O   UNL     1      -3.366   1.121   0.213  0.00  0.00    -0.454 OA
BRANCH  51  52
ATOM     52  C   UNL     1      -4.195   2.184   0.612  0.00  0.00    +0.340 C 
ATOM     53  O   UNL     1      -5.093   2.003   1.480  0.00  0.00    -0.245 OA
BRANCH  52  54
ATOM     54  C   UNL     1      -3.964   3.528   0.043  0.00  0.00    +0.059 A 
ATOM     55  C   UNL     1      -4.714   4.637   0.475  0.00  0.00    +0.015 A 
ATOM     56  C   UNL     1      -4.472   5.908  -0.060  0.00  0.00    +0.001 A 
ATOM     57  C   UNL     1      -3.481   6.085  -1.032  0.00  0.00    +0.000 A 
ATOM     58  C   UNL     1      -2.729   4.991  -1.467  0.00  0.00    +0.001 A 
ATOM     59  C   UNL     1      -2.963   3.722  -0.928  0.00  0.00    +0.015 A 
ENDBRANCH  52  54
ENDBRANCH  51  52
ENDBRANCH   4  51
BRANCH   6  60
ATOM     60  O   UNL     1      -3.762   0.098  -2.091  0.00  0.00    -0.453 OA
BRANCH  60  61
ATOM     61  C   UNL     1      -4.834   1.000  -2.249  0.00  0.00    +0.305 C 
ATOM     62  C   UNL     1      -4.795   1.997  -3.354  0.00  0.00    +0.136 C 
ATOM     63  O   UNL     1      -5.826   0.980  -1.469  0.00  0.00    -0.251 OA
ENDBRANCH  60  61
ENDBRANCH   6  60
TORSDOF 17
