REMARK  Name = 
REMARK  11 active torsions:
REMARK  status: ('A' for Active; 'I' for Inactive)
REMARK    1  A    between atoms: C_14  and  C_20
REMARK    2  A    between atoms: N_16  and  C_17
REMARK    3  A    between atoms: C_17  and  C_18
REMARK    4  A    between atoms: N_22  and  C_23
REMARK    5  A    between atoms: C_23  and  C_24
REMARK    6  A    between atoms: C_24  and  C_25
REMARK    7  A    between atoms: C_25  and  N_26
REMARK    8  A    between atoms: N_26  and  C_27
REMARK    9  A    between atoms: N_26  and  C_28
REMARK   10  A    between atoms: N_31  and  C_32
REMARK   11  A    between atoms: C_32  and  C_33
REMARK                            x       y       z     vdW  Elec       q    Type
REMARK                         _______ _______ _______ _____ _____    ______ ____
ROOT
ATOM      1  C   UNL     1      -2.741   0.394   0.353  0.00  0.00    +0.069 C 
ATOM      2  C   UNL     1      -4.298   0.415   0.542  0.00  0.00    +0.056 C 
ATOM      3  C   UNL     1      -4.830  -0.984   0.495  0.00  0.00    -0.021 A 
ATOM      4  C   UNL     1      -6.104  -1.491   0.260  0.00  0.00    +0.087 A 
ATOM      5  N   UNL     1      -6.094  -2.844   0.400  0.00  0.00    -0.360 N 
ATOM      6  C   UNL     1      -4.829  -3.172   0.732  0.00  0.00    +0.047 A 
ATOM      7  C   UNL     1      -4.295  -4.423   1.034  0.00  0.00    +0.026 A 
ATOM      8  C   UNL     1      -2.936  -4.475   1.420  0.00  0.00    +0.002 A 
ATOM      9  C   UNL     1      -2.157  -3.290   1.498  0.00  0.00    +0.004 A 
ATOM     10  C   UNL     1      -2.728  -2.040   1.153  0.00  0.00    -0.033 A 
ATOM     11  C   UNL     1      -4.061  -2.056   0.797  0.00  0.00    +0.006 A 
ATOM     12  C   UNL     1      -2.074  -0.670   1.309  0.00  0.00    +0.038 C 
ATOM     13  C   UNL     1      -0.554  -0.711   1.076  0.00  0.00    +0.023 C 
ATOM     14  C   UNL     1       0.043   0.695   1.224  0.00  0.00    +0.090 C 
ATOM     15  C   UNL     1      -0.671   1.694   0.300  0.00  0.00    +0.097 C 
ATOM     16  N   UNL     1      -2.122   1.729   0.589  0.00  0.00    -0.294 NA
ATOM     17  H   UNL     1      -6.907  -3.491   0.294  0.00  0.00    +0.165 HD
ENDROOT
BRANCH  14  18
ATOM     18  C   UNL     1       1.541   0.675   1.018  0.00  0.00    +0.227 C 
ATOM     19  O   UNL     1       2.278   0.333   1.981  0.00  0.00    -0.275 OA
ATOM     20  N   UNL     1       2.153   1.079  -0.221  0.00  0.00    -0.226 N 
ATOM     21  C   UNL     1       3.076   2.190  -0.225  0.00  0.00    +0.309 C 
ATOM     22  O   UNL     1       3.892   2.322  -1.178  0.00  0.00    -0.252 OA
ATOM     23  N   UNL     1       3.060   3.162   0.835  0.00  0.00    -0.299 N 
ATOM     24  H   UNL     1       2.379   3.066   1.621  0.00  0.00    +0.150 HD
BRANCH  23  25
ATOM     25  C   UNL     1       3.989   4.289   0.876  0.00  0.00    +0.102 C 
ATOM     26  C   UNL     1       3.568   5.368  -0.116  0.00  0.00    +0.024 C 
ENDBRANCH  23  25
BRANCH  20  27
ATOM     27  C   UNL     1       1.990   0.260  -1.433  0.00  0.00    +0.119 C 
BRANCH  27  28
ATOM     28  C   UNL     1       3.072  -0.827  -1.533  0.00  0.00    +0.035 C 
BRANCH  28  29
ATOM     29  C   UNL     1       2.732  -2.066  -0.674  0.00  0.00    +0.085 C 
BRANCH  29  30
ATOM     30  N   UNL     1       3.737  -3.150  -0.742  0.00  0.00    -0.308 NA
ATOM     31  C   UNL     1       3.879  -3.721  -2.091  0.00  0.00    +0.104 C 
ATOM     32  C   UNL     1       5.043  -2.756  -0.190  0.00  0.00    +0.104 C 
ENDBRANCH  29  30
ENDBRANCH  28  29
ENDBRANCH  27  28
ENDBRANCH  20  27
ENDBRANCH  14  18
BRANCH  16  33
ATOM     33  C   UNL     1      -2.764   2.849  -0.145  0.00  0.00    +0.111 C 
BRANCH  33  34
ATOM     34  C   UNL     1      -2.788   2.649  -1.645  0.00  0.00    -0.019 C 
ATOM     35  C   UNL     1      -1.872   3.202  -2.445  0.00  0.00    +0.005 C 
ENDBRANCH  33  34
ENDBRANCH  16  33
TORSDOF 8
