REMARK  Name = 
REMARK  3 active torsions:
REMARK  status: ('A' for Active; 'I' for Inactive)
REMARK    1  A    between atoms: C_1  and  N_2
REMARK    2  A    between atoms: N_9  and  C_10
REMARK    3  A    between atoms: N_13  and  C_14
REMARK                            x       y       z     vdW  Elec       q    Type
REMARK                         _______ _______ _______ _____ _____    ______ ____
ROOT
ATOM      1  C   UNL     1       3.303   0.472  -0.037  0.00  0.00    +0.150 C 
ATOM      2  N   UNL     1       2.120  -0.383  -0.013  0.00  0.00    -0.328 N 
ATOM      3  C   UNL     1       2.092  -1.738   0.008  0.00  0.00    +0.202 A 
ATOM      4  N   UNL     1       0.832  -2.246   0.009  0.00  0.00    -0.218 NA
ATOM      5  C   UNL     1       0.062  -1.139  -0.011  0.00  0.00    +0.168 A 
ATOM      6  C   UNL     1       0.826  -0.023  -0.026  0.00  0.00    +0.151 A 
ATOM      7  C   UNL     1       0.236   1.233  -0.075  0.00  0.00    +0.282 A 
ATOM      8  O   UNL     1       0.948   2.274  -0.111  0.00  0.00    -0.265 OA
ATOM      9  N   UNL     1      -1.139   1.306  -0.092  0.00  0.00    -0.262 N 
ATOM     10  C   UNL     1      -1.801   2.619  -0.180  0.00  0.00    +0.157 C 
ATOM     11  C   UNL     1      -1.899   0.148  -0.105  0.00  0.00    +0.333 A 
ATOM     12  O   UNL     1      -3.157   0.224  -0.188  0.00  0.00    -0.246 OA
ATOM     13  N   UNL     1      -1.297  -1.091  -0.036  0.00  0.00    -0.280 N 
ATOM     14  C   UNL     1      -2.093  -2.325  -0.073  0.00  0.00    +0.155 C 
ENDROOT
TORSDOF 0
