REMARK  Name = 
REMARK  2 active torsions:
REMARK  status: ('A' for Active; 'I' for Inactive)
REMARK    1  A    between atoms: C_2  and  C_3
REMARK    2  A    between atoms: C_6  and  C_7
REMARK                            x       y       z     vdW  Elec       q    Type
REMARK                         _______ _______ _______ _____ _____    ______ ____
ROOT
ATOM      1 CA   UNL     1       0.000   0.000   0.000  0.00  0.00    +0.000 Ca
ENDROOT
TORSDOF 0
REMARK  Name = 
REMARK  2 active torsions:
REMARK  status: ('A' for Active; 'I' for Inactive)
REMARK    1  A    between atoms: C_2  and  C_3
REMARK    2  A    between atoms: C_6  and  C_7
REMARK                            x       y       z     vdW  Elec       q    Type
REMARK                         _______ _______ _______ _____ _____    ______ ____
ROOT
ATOM      1  C   UNL     1      -0.654  -0.069  -0.116  0.00  0.00    +0.000 C 
ATOM      2  C   UNL     1       0.798   0.109   0.175  0.00  0.00    +0.000 C 
ATOM      3  O   UNL     1       1.718  -0.828  -0.278  0.00  0.00    +0.000 OA
ATOM      4  O   UNL     1       1.198   1.132   0.789  0.00  0.00    +0.000 OA
ENDROOT
TORSDOF 0
REMARK  Name = 
REMARK  2 active torsions:
REMARK  status: ('A' for Active; 'I' for Inactive)
REMARK    1  A    between atoms: C_2  and  C_3
REMARK    2  A    between atoms: C_6  and  C_7
REMARK                            x       y       z     vdW  Elec       q    Type
REMARK                         _______ _______ _______ _____ _____    ______ ____
ROOT
ATOM      1  C   UNL     1      -0.655  -0.070  -0.106  0.00  0.00    +0.000 C 
ATOM      2  C   UNL     1       0.800   0.110   0.163  0.00  0.00    +0.000 C 
ATOM      3  O   UNL     1       1.713  -0.836  -0.286  0.00  0.00    +0.000 OA
ATOM      4  O   UNL     1       1.210   1.143   0.754  0.00  0.00    +0.000 OA
ENDROOT
TORSDOF 0
