REMARK  Name = 
REMARK  10 active torsions:
REMARK  status: ('A' for Active; 'I' for Inactive)
REMARK    1  A    between atoms: O_1  and  C_2
REMARK    2  A    between atoms: C_2  and  C_3
REMARK    3  A    between atoms: C_2  and  C_28
REMARK    4  A    between atoms: C_4  and  C_5
REMARK    5  A    between atoms: C_5  and  C_6
REMARK    6  A    between atoms: C_5  and  C_7
REMARK    7  A    between atoms: C_15  and  C_16
REMARK    8  A    between atoms: C_17  and  C_18
REMARK    9  A    between atoms: C_21  and  O_22
REMARK   10  A    between atoms: C_24  and  O_25
REMARK                            x       y       z     vdW  Elec       q    Type
REMARK                         _______ _______ _______ _____ _____    ______ ____
ROOT
ATOM      1  C   UNL     1       1.941   0.058   1.872  0.00  0.00    +0.002 C 
ATOM      2  C   UNL     1       0.964   0.833   2.788  0.00  0.00    +0.005 C 
ATOM      3  C   UNL     1      -0.452   0.402   2.375  0.00  0.00    +0.009 C 
ATOM      4  C   UNL     1      -0.239  -0.722   1.359  0.00  0.00    +0.021 C 
ATOM      5  C   UNL     1      -1.323  -1.059   0.356  0.00  0.00    -0.066 C 
ATOM      6  C   UNL     1      -0.907  -1.978  -0.783  0.00  0.00    +0.031 C 
ATOM      7  C   UNL     1       0.484  -2.614  -0.557  0.00  0.00    +0.005 C 
ATOM      8  C   UNL     1       1.599  -1.624  -0.123  0.00  0.00    +0.008 C 
ATOM      9  C   UNL     1       1.080  -0.367   0.645  0.00  0.00    -0.022 C 
ATOM     10  C   UNL     1       0.885   0.809  -0.358  0.00  0.00    +0.012 C 
ATOM     11  C   UNL     1      -2.580  -0.589   0.482  0.00  0.00    -0.000 C 
ENDROOT
BRANCH  11  12
ATOM     12  C   UNL     1      -3.661  -0.848  -0.499  0.00  0.00    +0.004 C 
ATOM     13  C   UNL     1      -4.808  -0.135  -0.585  0.00  0.00    -0.040 C 
ATOM     14  C   UNL     1      -5.910  -0.707  -1.455  0.00  0.00    +0.067 C 
ATOM     15  C   UNL     1      -7.215   0.108  -1.413  0.00  0.00    +0.122 C 
ATOM     16  C   UNL     1      -7.532   0.530   0.027  0.00  0.00    +0.067 C 
ATOM     17  C   UNL     1      -6.475   1.510   0.574  0.00  0.00    +0.147 C 
ATOM     18  C   UNL     1      -5.058   1.143   0.155  0.00  0.00    -0.023 C 
ATOM     19  C   UNL     1      -4.054   1.997   0.389  0.00  0.00    +0.015 C 
BRANCH  15  20
ATOM     20  O   UNL     1      -8.276  -0.667  -1.909  0.00  0.00    -0.391 OA
ATOM     21  H   UNL     1      -8.161  -0.710  -2.895  0.00  0.00    +0.210 HD
ENDBRANCH  15  20
BRANCH  17  22
ATOM     22  O   UNL     1      -6.794   2.829   0.199  0.00  0.00    -0.387 OA
ATOM     23  H   UNL     1      -6.659   2.907  -0.781  0.00  0.00    +0.210 HD
ENDBRANCH  17  22
ENDBRANCH  11  12
BRANCH   1  24
ATOM     24  C   UNL     1       3.346   0.725   1.682  0.00  0.00    +0.012 C 
ATOM     25  C   UNL     1       3.380   2.228   1.327  0.00  0.00    +0.012 C 
BRANCH  24  27
ATOM     26  C   UNL     1       4.551   0.137  -0.466  0.00  0.00    +0.000 C 
ATOM     27  C   UNL     1       4.248  -0.131   0.816  0.00  0.00    -0.025 C 
BRANCH  26  28
ATOM     28  C   UNL     1       5.374  -0.829  -1.292  0.00  0.00    +0.140 C 
BRANCH  28  29
ATOM     29  C   UNL     1       6.803  -0.978  -0.712  0.00  0.00    +0.022 C 
ATOM     30  C   UNL     1       7.780   0.162  -0.963  0.00  0.00    +0.007 C 
ATOM     31  C   UNL     1       7.954  -1.162  -1.694  0.00  0.00    +0.007 C 
ENDBRANCH  28  29
BRANCH  28  32
ATOM     32  O   UNL     1       5.354  -0.483  -2.657  0.00  0.00    -0.387 OA
ATOM     33  H   UNL     1       5.554   0.484  -2.745  0.00  0.00    +0.210 HD
ENDBRANCH  28  32
ENDBRANCH  26  28
ENDBRANCH  24  27
ENDBRANCH   1  24
TORSDOF 8
