REMARK  Name = 
REMARK  13 active torsions:
REMARK  status: ('A' for Active; 'I' for Inactive)
REMARK    1  A    between atoms: C_1  and  C_2
REMARK    2  A    between atoms: C_2  and  C_3
REMARK    3  A    between atoms: C_2  and  C_10
REMARK    4  A    between atoms: C_3  and  C_4
REMARK    5  A    between atoms: C_4  and  C_5
REMARK    6  A    between atoms: C_5  and  C_6
REMARK    7  A    between atoms: C_6  and  C_7
REMARK    8  A    between atoms: C_6  and  C_8
REMARK    9  A    between atoms: C_6  and  O_9
REMARK   10  A    between atoms: C_18  and  C_19
REMARK   11  A    between atoms: C_20  and  C_21
REMARK   12  A    between atoms: C_24  and  O_25
REMARK   13  A    between atoms: C_27  and  O_28
REMARK                            x       y       z     vdW  Elec       q    Type
REMARK                         _______ _______ _______ _____ _____    ______ ____
ROOT
ATOM      1  C   UNL     1       1.495   0.943   1.272  0.00  0.00    -0.002 C 
ATOM      2  C   UNL     1       0.871   1.965   0.292  0.00  0.00    +0.005 C 
ATOM      3  C   UNL     1      -0.649   1.725   0.331  0.00  0.00    +0.009 C 
ATOM      4  C   UNL     1      -0.857   0.680   1.432  0.00  0.00    +0.021 C 
ATOM      5  C   UNL     1      -2.084  -0.206   1.430  0.00  0.00    -0.066 C 
ATOM      6  C   UNL     1      -2.044  -1.390   2.386  0.00  0.00    +0.031 C 
ATOM      7  C   UNL     1      -0.851  -1.329   3.372  0.00  0.00    +0.005 C 
ATOM      8  C   UNL     1       0.526  -0.996   2.732  0.00  0.00    +0.008 C 
ATOM      9  C   UNL     1       0.425  -0.172   1.413  0.00  0.00    -0.022 C 
ATOM     10  C   UNL     1       0.453  -1.149   0.197  0.00  0.00    +0.012 C 
ATOM     11  C   UNL     1      -3.160   0.070   0.664  0.00  0.00    -0.000 C 
ENDROOT
BRANCH  11  12
ATOM     12  C   UNL     1      -4.365  -0.793   0.596  0.00  0.00    +0.004 C 
ATOM     13  C   UNL     1      -5.374  -0.645  -0.292  0.00  0.00    -0.040 C 
ATOM     14  C   UNL     1      -6.637  -1.448  -0.043  0.00  0.00    +0.067 C 
ATOM     15  C   UNL     1      -7.809  -1.057  -0.963  0.00  0.00    +0.122 C 
ATOM     16  C   UNL     1      -7.841   0.462  -1.169  0.00  0.00    +0.067 C 
ATOM     17  C   UNL     1      -6.611   0.923  -1.972  0.00  0.00    +0.147 C 
ATOM     18  C   UNL     1      -5.330   0.281  -1.467  0.00  0.00    -0.023 C 
ATOM     19  C   UNL     1      -4.190   0.459  -2.144  0.00  0.00    +0.015 C 
BRANCH  15  20
ATOM     20  O   UNL     1      -9.024  -1.472  -0.396  0.00  0.00    -0.391 OA
ATOM     21  H   UNL     1      -9.054  -2.462  -0.480  0.00  0.00    +0.210 HD
ENDBRANCH  15  20
BRANCH  17  22
ATOM     22  O   UNL     1      -6.791   0.599  -3.329  0.00  0.00    -0.387 OA
ATOM     23  H   UNL     1      -7.418   1.272  -3.704  0.00  0.00    +0.210 HD
ENDBRANCH  17  22
ENDBRANCH  11  12
BRANCH   1  25
ATOM     24  C   UNL     1       3.960   1.397   1.747  0.00  0.00    +0.008 C 
ATOM     25  C   UNL     1       2.973   0.482   1.000  0.00  0.00    -0.010 C 
BRANCH  25  26
ATOM     26  C   UNL     1       3.370   0.392  -0.501  0.00  0.00    +0.003 C 
BRANCH  26  27
ATOM     27  C   UNL     1       4.679  -0.397  -0.741  0.00  0.00    +0.003 C 
BRANCH  27  28
ATOM     28  C   UNL     1       5.837   0.523  -1.182  0.00  0.00    +0.034 C 
BRANCH  28  29
ATOM     29  C   UNL     1       7.228  -0.170  -1.174  0.00  0.00    +0.061 C 
ATOM     30  C   UNL     1       8.307   0.850  -1.586  0.00  0.00    +0.041 C 
ATOM     31  C   UNL     1       7.262  -1.347  -2.164  0.00  0.00    +0.041 C 
BRANCH  29  32
ATOM     32  O   UNL     1       7.520  -0.666   0.111  0.00  0.00    -0.389 OA
ATOM     33  H   UNL     1       7.511   0.099   0.743  0.00  0.00    +0.210 HD
ENDBRANCH  29  32
ENDBRANCH  28  29
ENDBRANCH  27  28
ENDBRANCH  26  27
ENDBRANCH  25  26
ENDBRANCH   1  25
TORSDOF 9
