REMARK  Name = 
REMARK  12 active torsions:
REMARK  status: ('A' for Active; 'I' for Inactive)
REMARK    1  A    between atoms: C_1  and  C_2
REMARK    2  A    between atoms: C_2  and  C_3
REMARK    3  A    between atoms: C_2  and  C_10
REMARK    4  A    between atoms: C_3  and  C_4
REMARK    5  A    between atoms: C_4  and  C_5
REMARK    6  A    between atoms: C_5  and  C_6
REMARK    7  A    between atoms: C_6  and  C_7
REMARK    8  A    between atoms: C_6  and  C_8
REMARK    9  A    between atoms: C_6  and  O_9
REMARK   10  A    between atoms: C_18  and  C_19
REMARK   11  A    between atoms: C_20  and  C_21
REMARK   12  A    between atoms: C_24  and  O_25
REMARK                            x       y       z     vdW  Elec       q    Type
REMARK                         _______ _______ _______ _____ _____    ______ ____
ROOT
ATOM      1  C   UNL     1       1.575  -0.228  -0.817  0.00  0.00    -0.002 C 
ATOM      2  C   UNL     1       0.869   0.669  -1.867  0.00  0.00    +0.005 C 
ATOM      3  C   UNL     1      -0.379   1.246  -1.185  0.00  0.00    +0.009 C 
ATOM      4  C   UNL     1      -0.177   0.939   0.297  0.00  0.00    +0.021 C 
ATOM      5  C   UNL     1      -1.356   0.960   1.248  0.00  0.00    -0.066 C 
ATOM      6  C   UNL     1      -1.096   0.378   2.630  0.00  0.00    +0.031 C 
ATOM      7  C   UNL     1       0.404   0.102   2.888  0.00  0.00    +0.005 C 
ATOM      8  C   UNL     1       1.142  -0.654   1.748  0.00  0.00    +0.008 C 
ATOM      9  C   UNL     1       0.530  -0.432   0.326  0.00  0.00    -0.022 C 
ATOM     10  C   UNL     1      -0.464  -1.589   0.007  0.00  0.00    +0.012 C 
ATOM     11  C   UNL     1      -2.551   1.474   0.892  0.00  0.00    -0.000 C 
ENDROOT
BRANCH  11  12
ATOM     12  C   UNL     1      -3.745   1.468   1.772  0.00  0.00    +0.004 C 
ATOM     13  C   UNL     1      -4.999   1.760   1.362  0.00  0.00    -0.042 C 
ATOM     14  C   UNL     1      -6.057   1.957   2.430  0.00  0.00    +0.066 C 
ATOM     15  C   UNL     1      -7.397   2.474   1.868  0.00  0.00    +0.119 C 
ATOM     16  C   UNL     1      -7.157   3.542   0.786  0.00  0.00    +0.036 C 
ATOM     17  C   UNL     1      -6.480   2.918  -0.442  0.00  0.00    +0.037 C 
ATOM     18  C   UNL     1      -5.389   1.933  -0.070  0.00  0.00    -0.051 C 
ATOM     19  C   UNL     1      -4.880   1.132  -1.012  0.00  0.00    +0.012 C 
BRANCH  15  20
ATOM     20  O   UNL     1      -8.206   2.977   2.901  0.00  0.00    -0.391 OA
ATOM     21  H   UNL     1      -7.769   3.795   3.256  0.00  0.00    +0.210 HD
ENDBRANCH  15  20
ENDBRANCH  11  12
BRANCH   1  23
ATOM     22  C   UNL     1       1.533  -2.476  -2.224  0.00  0.00    +0.008 C 
ATOM     23  C   UNL     1       2.362  -1.440  -1.430  0.00  0.00    -0.010 C 
BRANCH  23  24
ATOM     24  C   UNL     1       3.253  -2.129  -0.364  0.00  0.00    +0.003 C 
BRANCH  24  25
ATOM     25  C   UNL     1       4.256  -3.163  -0.918  0.00  0.00    +0.003 C 
BRANCH  25  26
ATOM     26  C   UNL     1       5.270  -2.638  -1.962  0.00  0.00    +0.034 C 
BRANCH  26  27
ATOM     27  C   UNL     1       6.217  -1.495  -1.501  0.00  0.00    +0.061 C 
ATOM     28  C   UNL     1       7.246  -1.236  -2.620  0.00  0.00    +0.041 C 
ATOM     29  C   UNL     1       6.963  -1.875  -0.204  0.00  0.00    +0.041 C 
BRANCH  27  30
ATOM     30  O   UNL     1       5.463  -0.323  -1.300  0.00  0.00    -0.389 OA
ATOM     31  H   UNL     1       6.079   0.394  -0.993  0.00  0.00    +0.210 HD
ENDBRANCH  27  30
ENDBRANCH  26  27
ENDBRANCH  25  26
ENDBRANCH  24  25
ENDBRANCH  23  24
ENDBRANCH   1  23
TORSDOF 8
