REMARK  Name = 
REMARK  6 active torsions:
REMARK  status: ('A' for Active; 'I' for Inactive)
REMARK    1  A    between atoms: C_1  and  N_2
REMARK    2  A    between atoms: N_2  and  C_3
REMARK    3  A    between atoms: C_4  and  O_6
REMARK    4  A    between atoms: O_6  and  C_7
REMARK    5  A    between atoms: C_9  and  C_10
REMARK    6  A    between atoms: N_23  and  C_24
REMARK                            x       y       z     vdW  Elec       q    Type
REMARK                         _______ _______ _______ _____ _____    ______ ____
ROOT
ATOM      1  C   UNL     1       1.240  -0.711  -0.123  0.00  0.00    +0.383 C 
ATOM      2  N   UNL     1       0.246   0.349   0.013  0.00  0.00    -0.232 NA
ATOM      3  C   UNL     1      -1.014   0.240  -0.302  0.00  0.00    +0.079 C 
ATOM      4  C   UNL     1      -1.556  -1.022  -0.885  0.00  0.00    +0.023 A 
ATOM      5  C   UNL     1      -1.252  -2.294  -0.335  0.00  0.00    +0.045 A 
ATOM      6  C   UNL     1      -1.808  -3.445  -0.923  0.00  0.00    +0.025 A 
ATOM      7  C   UNL     1      -2.643  -3.346  -2.036  0.00  0.00    +0.022 A 
ATOM      8  C   UNL     1      -2.935  -2.096  -2.582  0.00  0.00    +0.042 A 
ATOM      9 CL   UNL     1      -3.981  -1.975  -3.985  0.00  0.00    -0.084 Cl
ATOM     10  C   UNL     1      -2.393  -0.943  -2.012  0.00  0.00    +0.032 A 
ATOM     11  N   UNL     1      -0.394  -2.431   0.819  0.00  0.00    -0.269 N 
ATOM     12  C   UNL     1      -0.763  -3.361   1.891  0.00  0.00    +0.138 C 
ATOM     13  C   UNL     1       0.908  -1.812   0.841  0.00  0.00    +0.284 C 
ATOM     14  O   UNL     1       1.772  -2.189   1.680  0.00  0.00    -0.269 OA
ENDROOT
BRANCH   3  15
ATOM     15  C   UNL     1      -1.897   1.419  -0.103  0.00  0.00    +0.001 A 
ATOM     16  C   UNL     1      -3.269   1.255   0.167  0.00  0.00    +0.010 A 
ATOM     17  C   UNL     1      -4.091   2.369   0.362  0.00  0.00    +0.001 A 
ATOM     18  C   UNL     1      -3.554   3.656   0.297  0.00  0.00    +0.000 A 
ATOM     19  C   UNL     1      -2.193   3.833   0.040  0.00  0.00    +0.001 A 
ATOM     20  C   UNL     1      -1.366   2.723  -0.156  0.00  0.00    +0.010 A 
ENDBRANCH   3  15
BRANCH   1  21
ATOM     21  O   UNL     1       2.535  -0.183   0.162  0.00  0.00    -0.416 OA
BRANCH  21  25
ATOM     22  C   UNL     1       5.124   2.274  -1.116  0.00  0.00    +0.135 C 
ATOM     23  N   UNL     1       4.463   1.272  -0.276  0.00  0.00    -0.273 N 
ATOM     24  C   UNL     1       5.106   0.770   0.941  0.00  0.00    +0.135 C 
ATOM     25  C   UNL     1       3.166   0.773  -0.643  0.00  0.00    +0.405 C 
ATOM     26  O   UNL     1       2.599   1.195  -1.689  0.00  0.00    -0.226 OA
ENDBRANCH  21  25
ENDBRANCH   1  21
TORSDOF 3
