REMARK  Name = 
REMARK  10 active torsions:
REMARK  status: ('A' for Active; 'I' for Inactive)
REMARK    1  A    between atoms: C_1  and  C_12
REMARK    2  A    between atoms: C_3  and  C_4
REMARK    3  A    between atoms: C_4  and  O_5
REMARK    4  A    between atoms: C_6  and  O_7
REMARK    5  A    between atoms: C_8  and  O_9
REMARK    6  A    between atoms: C_10  and  O_11
REMARK    7  A    between atoms: C_15  and  C_16
REMARK    8  A    between atoms: C_17  and  C_18
REMARK    9  A    between atoms: C_18  and  C_19
REMARK   10  A    between atoms: C_22  and  C_24
REMARK                            x       y       z     vdW  Elec       q    Type
REMARK                         _______ _______ _______ _____ _____    ______ ____
ROOT
ATOM      1  C   UNL     1      -2.162  -1.271  -0.266  0.00  0.00    -0.016 A 
ATOM      2  C   UNL     1      -2.121  -2.567  -0.799  0.00  0.00    +0.006 A 
ATOM      3  C   UNL     1      -1.067  -3.426  -0.489  0.00  0.00    +0.004 A 
ATOM      4  C   UNL     1      -0.033  -3.015   0.368  0.00  0.00    -0.047 A 
ATOM      5  C   UNL     1       1.080  -3.981   0.682  0.00  0.00    +0.044 C 
ATOM      6  C   UNL     1      -0.082  -1.720   0.943  0.00  0.00    -0.039 A 
ATOM      7  C   UNL     1      -1.147  -0.863   0.614  0.00  0.00    +0.010 A 
ENDROOT
BRANCH   1   8
ATOM      8  C   UNL     1      -3.330  -0.360  -0.580  0.00  0.00    +0.180 C 
ATOM      9  O   UNL     1      -2.857   0.973  -0.720  0.00  0.00    -0.361 OA
ATOM     10  C   UNL     1      -3.941   1.861  -0.925  0.00  0.00    +0.175 C 
ATOM     11  C   UNL     1      -4.771   2.027   0.378  0.00  0.00    +0.176 C 
ATOM     12  C   UNL     1      -4.587   0.814   1.320  0.00  0.00    +0.177 C 
ATOM     13  C   UNL     1      -4.435  -0.495   0.519  0.00  0.00    +0.179 C 
BRANCH  11  14
ATOM     14  O   UNL     1      -6.127   2.174   0.039  0.00  0.00    -0.386 OA
ATOM     15  H   UNL     1      -6.581   2.576   0.825  0.00  0.00    +0.210 HD
ENDBRANCH  11  14
BRANCH  12  16
ATOM     16  O   UNL     1      -3.450   1.020   2.119  0.00  0.00    -0.386 OA
ATOM     17  H   UNL     1      -3.510   0.385   2.880  0.00  0.00    +0.210 HD
ENDBRANCH  12  16
BRANCH  13  18
ATOM     18  O   UNL     1      -5.668  -0.808  -0.078  0.00  0.00    -0.386 OA
ATOM     19  H   UNL     1      -5.618  -1.761  -0.353  0.00  0.00    +0.210 HD
ENDBRANCH  13  18
BRANCH  10  20
ATOM     20  C   UNL     1      -3.397   3.205  -1.423  0.00  0.00    +0.190 C 
BRANCH  20  21
ATOM     21  O   UNL     1      -2.443   3.708  -0.527  0.00  0.00    -0.392 OA
ATOM     22  H   UNL     1      -2.140   4.574  -0.905  0.00  0.00    +0.210 HD
ENDBRANCH  20  21
ENDBRANCH  10  20
ENDBRANCH   1   8
BRANCH   6  23
ATOM     23  C   UNL     1       0.998  -1.202   1.867  0.00  0.00    +0.077 C 
BRANCH  23  24
ATOM     24  C   UNL     1       2.057  -0.481   1.091  0.00  0.00    -0.005 A 
ATOM     25  C   UNL     1       1.919   0.756   0.475  0.00  0.00    +0.012 A 
ATOM     26  C   UNL     1       3.074   1.176  -0.196  0.00  0.00    +0.016 A 
ATOM     27  C   UNL     1       4.135   0.270  -0.112  0.00  0.00    +0.020 A 
ATOM     28  S   UNL     1       3.610  -1.050   0.800  0.00  0.00    -0.093 S 
BRANCH  27  29
ATOM     29  C   UNL     1       5.486   0.418  -0.715  0.00  0.00    -0.011 A 
ATOM     30  C   UNL     1       6.388  -0.664  -0.709  0.00  0.00    +0.012 A 
ATOM     31  C   UNL     1       7.661  -0.533  -1.273  0.00  0.00    +0.039 A 
ATOM     32  C   UNL     1       8.052   0.678  -1.848  0.00  0.00    +0.123 A 
ATOM     33  F   UNL     1       9.287   0.803  -2.393  0.00  0.00    -0.205 F 
ATOM     34  C   UNL     1       7.169   1.760  -1.859  0.00  0.00    +0.039 A 
ATOM     35  C   UNL     1       5.895   1.635  -1.296  0.00  0.00    +0.012 A 
ENDBRANCH  27  29
ENDBRANCH  23  24
ENDBRANCH   6  23
TORSDOF 9
