REMARK  Name = 
REMARK  25 active torsions:
REMARK  status: ('A' for Active; 'I' for Inactive)
REMARK    1  A    between atoms: C_1  and  C_2
REMARK    2  A    between atoms: C_2  and  C_3
REMARK    3  A    between atoms: C_2  and  C_68
REMARK    4  A    between atoms: C_3  and  C_4
REMARK    5  A    between atoms: C_4  and  C_5
REMARK    6  A    between atoms: C_4  and  C_6
REMARK    7  A    between atoms: C_19  and  O_20
REMARK    8  A    between atoms: C_22  and  O_23
REMARK    9  A    between atoms: C_25  and  O_26
REMARK   10  A    between atoms: C_28  and  O_29
REMARK   11  A    between atoms: C_31  and  O_32
REMARK   12  A    between atoms: C_33  and  C_65
REMARK   13  A    between atoms: C_36  and  O_37
REMARK   14  A    between atoms: O_37  and  C_38
REMARK   15  A    between atoms: C_40  and  C_41
REMARK   16  A    between atoms: C_42  and  O_43
REMARK   17  A    between atoms: C_44  and  N_45
REMARK   18  A    between atoms: C_46  and  O_47
REMARK   19  A    between atoms: C_62  and  C_63
REMARK   20  A    between atoms: C_65  and  O_66
REMARK   21  A    between atoms: C_68  and  O_69
REMARK   22  A    between atoms: C_68  and  C_70
REMARK   23  A    between atoms: C_70  and  C_71
REMARK   24  A    between atoms: C_71  and  C_73
REMARK   25  A    between atoms: C_76  and  N_77
REMARK                            x       y       z     vdW  Elec       q    Type
REMARK                         _______ _______ _______ _____ _____    ______ ____
ROOT
ATOM      1  C   UNL     1       4.960   0.203  -0.201  0.00  0.00    +0.186 C 
ATOM      2  O   UNL     1       4.182   1.389  -0.470  0.00  0.00    -0.460 OA
ATOM      3  C   UNL     1       4.042   1.978  -1.775  0.00  0.00    +0.315 C 
ATOM      4  O   UNL     1       3.848   1.200  -2.762  0.00  0.00    -0.250 OA
ATOM      5  C   UNL     1       4.118   3.500  -1.996  0.00  0.00    +0.194 C 
ATOM      6  C   UNL     1       3.314   4.462  -1.032  0.00  0.00    +0.144 C 
ATOM      7  O   UNL     1       3.280   4.275   0.174  0.00  0.00    -0.297 OA
ATOM      8  C   UNL     1       2.914   5.821  -1.719  0.00  0.00    +0.075 C 
ATOM      9  C   UNL     1       1.491   6.297  -1.484  0.00  0.00    +0.015 C 
ATOM     10  C   UNL     1       1.627   7.321  -0.335  0.00  0.00    +0.075 C 
ATOM     11  C   UNL     1       1.829   6.471   0.795  0.00  0.00    +0.136 C 
ATOM     12  O   UNL     1       3.016   6.615   1.179  0.00  0.00    -0.297 OA
ATOM     13  C   UNL     1       0.738   5.405   1.203  0.00  0.00    +0.105 C 
ATOM     14  C   UNL     1      -0.681   5.848   0.691  0.00  0.00    +0.124 C 
ATOM     15  C   UNL     1      -1.830   5.006   0.042  0.00  0.00    +0.063 C 
ATOM     16  C   UNL     1      -3.174   5.401   0.664  0.00  0.00    +0.119 C 
ATOM     17  C   UNL     1      -4.360   4.630   0.073  0.00  0.00    +0.063 C 
ATOM     18  C   UNL     1      -5.308   4.273   1.210  0.00  0.00    +0.122 C 
ATOM     19  C   UNL     1      -6.606   3.772   0.741  0.00  0.00    +0.096 C 
ATOM     20  C   UNL     1      -6.644   2.374   0.053  0.00  0.00    +0.172 C 
ATOM     21  C   UNL     1      -7.999   2.457  -0.726  0.00  0.00    +0.097 C 
ATOM     22  C   UNL     1      -7.879   1.753  -2.127  0.00  0.00    +0.136 C 
ATOM     23  C   UNL     1      -7.113   0.421  -1.923  0.00  0.00    +0.155 C 
ATOM     24  C   UNL     1      -5.722   0.570  -1.176  0.00  0.00    +0.141 C 
ATOM     25  C   UNL     1      -4.448   0.098  -1.928  0.00  0.00    +0.068 C 
ATOM     26  C   UNL     1      -4.284  -1.571  -1.765  0.00  0.00    +0.147 C 
ATOM     27  C   UNL     1      -3.701  -2.199  -0.453  0.00  0.00    +0.004 C 
ATOM     28  C   UNL     1      -2.906  -3.316  -0.328  0.00  0.00    -0.002 C 
ATOM     29  C   UNL     1      -3.559  -4.744  -0.069  0.00  0.00    -0.000 C 
ATOM     30  C   UNL     1      -4.939  -4.921   0.408  0.00  0.00    -0.000 C 
ATOM     31  C   UNL     1      -5.304  -5.589   1.725  0.00  0.00    -0.000 C 
ATOM     32  C   UNL     1      -5.157  -4.891   2.842  0.00  0.00    -0.000 C 
ATOM     33  C   UNL     1      -3.818  -5.241   3.475  0.00  0.00    +0.000 C 
ATOM     34  C   UNL     1      -2.479  -5.262   2.811  0.00  0.00    +0.000 C 
ATOM     35  C   UNL     1      -1.395  -4.592   3.625  0.00  0.00    -0.000 C 
ATOM     36  C   UNL     1      -0.324  -3.790   3.220  0.00  0.00    -0.000 C 
ATOM     37  C   UNL     1       0.113  -3.382   1.844  0.00  0.00    -0.000 C 
ATOM     38  C   UNL     1       1.306  -3.682   1.288  0.00  0.00    -0.000 C 
ATOM     39  C   UNL     1       2.566  -2.769   1.183  0.00  0.00    -0.004 C 
ATOM     40  C   UNL     1       2.842  -1.692   0.417  0.00  0.00    -0.020 C 
ATOM     41  C   UNL     1       4.230  -0.967   0.681  0.00  0.00    +0.050 C 
ATOM     42  C   UNL     1       4.339  -0.630   2.192  0.00  0.00    +0.015 C 
ATOM     43  O   UNL     1      -5.574   1.958  -0.810  0.00  0.00    -0.344 OA
ENDROOT
BRANCH   1  44
ATOM     44  C   UNL     1       6.450   0.627   0.284  0.00  0.00    +0.028 C 
ATOM     45  C   UNL     1       6.379   1.751   1.333  0.00  0.00    +0.011 C 
BRANCH  44  46
ATOM     46  C   UNL     1       7.339   1.210  -0.870  0.00  0.00    +0.012 C 
BRANCH  46  48
ATOM     47  C   UNL     1       7.817  -0.986  -2.050  0.00  0.00    +0.010 C 
ATOM     48  C   UNL     1       8.406   0.328  -1.566  0.00  0.00    +0.015 C 
BRANCH  48  49
ATOM     49  C   UNL     1       9.789   0.138  -0.911  0.00  0.00    +0.125 C 
BRANCH  49  50
ATOM     50  O   UNL     1      10.350   1.402  -0.613  0.00  0.00    -0.391 OA
ATOM     51  H   UNL     1      11.343   1.346  -0.732  0.00  0.00    +0.210 HD
ENDBRANCH  49  50
BRANCH  49  52
ATOM     52  C   UNL     1       9.810  -0.763   0.345  0.00  0.00    +0.111 C 
BRANCH  52  53
ATOM     53  C   UNL     1      11.127  -0.735   1.049  0.00  0.00    +0.166 C 
ATOM     54  O   UNL     1      11.335   0.093   1.964  0.00  0.00    -0.292 OA
BRANCH  53  55
ATOM     55  C   UNL     1      12.310  -1.579   0.651  0.00  0.00    +0.018 A 
ATOM     56  C   UNL     1      13.604  -1.125   0.849  0.00  0.00    +0.013 A 
ATOM     57  C   UNL     1      14.691  -1.899   0.517  0.00  0.00    +0.023 A 
ATOM     58  C   UNL     1      14.524  -3.187  -0.040  0.00  0.00    +0.025 A 
ATOM     59  C   UNL     1      13.221  -3.680  -0.254  0.00  0.00    +0.023 A 
ATOM     60  C   UNL     1      12.134  -2.878   0.082  0.00  0.00    +0.013 A 
BRANCH  58  61
ATOM     61  N   UNL     1      15.658  -4.006  -0.368  0.00  0.00    -0.358 N 
ATOM     62  H   UNL     1      15.518  -4.976  -0.762  0.00  0.00    +0.142 HD
ATOM     63  H   UNL     1      16.629  -3.670  -0.215  0.00  0.00    +0.142 HD
ENDBRANCH  58  61
ENDBRANCH  53  55
ENDBRANCH  52  53
ENDBRANCH  49  52
ENDBRANCH  48  49
ENDBRANCH  46  48
ENDBRANCH  44  46
ENDBRANCH   1  44
BRANCH  14  64
ATOM     64  O   UNL     1      -1.046   6.935   1.484  0.00  0.00    -0.391 OA
ATOM     65  H   UNL     1      -1.428   6.598   2.317  0.00  0.00    +0.210 HD
ENDBRANCH  14  64
BRANCH  16  66
ATOM     66  O   UNL     1      -3.399   6.774   0.640  0.00  0.00    -0.392 OA
ATOM     67  H   UNL     1      -3.665   7.062  -0.286  0.00  0.00    +0.210 HD
ENDBRANCH  16  66
BRANCH  18  68
ATOM     68  O   UNL     1      -5.534   5.403   2.036  0.00  0.00    -0.392 OA
ATOM     69  H   UNL     1      -5.879   6.128   1.486  0.00  0.00    +0.210 HD
ENDBRANCH  18  68
BRANCH  20  70
ATOM     70  O   UNL     1      -6.550   1.483   1.154  0.00  0.00    -0.364 OA
ATOM     71  H   UNL     1      -7.322   1.502   1.758  0.00  0.00    +0.213 HD
ENDBRANCH  20  70
BRANCH  22  72
ATOM     72  O   UNL     1      -9.149   1.620  -2.730  0.00  0.00    -0.391 OA
ATOM     73  H   UNL     1      -9.807   1.330  -2.057  0.00  0.00    +0.210 HD
ENDBRANCH  22  72
BRANCH  23  74
ATOM     74  C   UNL     1      -8.202  -0.286  -1.063  0.00  0.00    +0.313 C 
ATOM     75  O   UNL     1      -9.033  -0.948  -1.659  0.00  0.00    -0.251 OA
BRANCH  74  76
ATOM     76  O   UNL     1      -8.230  -0.197   0.355  0.00  0.00    -0.480 OA
ATOM     77  H   UNL     1      -9.101  -0.412   0.869  0.00  0.00    +0.295 HD
ENDBRANCH  74  76
ENDBRANCH  23  74
BRANCH  26  78
ATOM     78  O   UNL     1      -5.384  -2.256  -2.309  0.00  0.00    -0.341 OA
BRANCH  78  79
ATOM     79  C   UNL     1      -6.509  -2.773  -1.600  0.00  0.00    +0.281 C 
ATOM     80  O   UNL     1      -6.794  -2.511  -0.176  0.00  0.00    -0.343 OA
ATOM     81  C   UNL     1      -8.042  -3.082   0.302  0.00  0.00    +0.148 C 
ATOM     82  C   UNL     1      -8.193  -3.205   1.822  0.00  0.00    +0.041 C 
ATOM     83  C   UNL     1      -8.631  -4.355  -0.437  0.00  0.00    +0.162 C 
ATOM     84  C   UNL     1      -7.793  -4.995  -1.521  0.00  0.00    +0.116 C 
ATOM     85  C   UNL     1      -7.314  -3.917  -2.445  0.00  0.00    +0.189 C 
BRANCH  84  86
ATOM     86  N   UNL     1      -6.833  -5.990  -0.970  0.00  0.00    -0.323 NA
ATOM     87  H   UNL     1      -6.657  -6.825  -1.644  0.00  0.00    +0.119 HD
ATOM     88  H   UNL     1      -7.220  -6.387  -0.032  0.00  0.00    +0.119 HD
ENDBRANCH  84  86
BRANCH  83  89
ATOM     89  O   UNL     1      -9.821  -3.990  -1.115  0.00  0.00    -0.388 OA
ATOM     90  H   UNL     1     -10.479  -4.694  -0.920  0.00  0.00    +0.210 HD
ENDBRANCH  83  89
BRANCH  85  91
ATOM     91  O   UNL     1      -6.505  -4.494  -3.453  0.00  0.00    -0.385 OA
ATOM     92  H   UNL     1      -6.466  -3.889  -4.259  0.00  0.00    +0.210 HD
ENDBRANCH  85  91
ENDBRANCH  78  79
ENDBRANCH  26  78
TORSDOF 21
