REMARK  Name = 
REMARK  15 active torsions:
REMARK  status: ('A' for Active; 'I' for Inactive)
REMARK    1  A    between atoms: C_1  and  O_2
REMARK    2  A    between atoms: O_2  and  C_3
REMARK    3  A    between atoms: C_3  and  C_4
REMARK    4  A    between atoms: C_4  and  O_5
REMARK    5  A    between atoms: O_5  and  C_6
REMARK    6  A    between atoms: C_6  and  C_7
REMARK    7  A    between atoms: C_7  and  C_8
REMARK    8  A    between atoms: C_7  and  C_26
REMARK    9  A    between atoms: C_8  and  C_9
REMARK   10  A    between atoms: C_9  and  C_14
REMARK   11  A    between atoms: N_16  and  C_17
REMARK   12  A    between atoms: C_20  and  C_23
REMARK   13  A    between atoms: C_23  and  O_24
REMARK   14  A    between atoms: C_26  and  O_28
REMARK   15  A    between atoms: O_28  and  C_29
REMARK                            x       y       z     vdW  Elec       q    Type
REMARK                         _______ _______ _______ _____ _____    ______ ____
ROOT
ATOM      1  C   UNL     1      -1.306  -0.005  -1.794  0.00  0.00    +0.033 C 
ENDROOT
BRANCH   1   2
ATOM      2  C   UNL     1      -0.055   0.846  -1.391  0.00  0.00    +0.048 C 
ATOM      3  C   UNL     1      -0.255   1.588  -0.058  0.00  0.00    +0.016 C 
ATOM      4  C   UNL     1       0.661   2.807  -0.111  0.00  0.00    +0.001 C 
ATOM      5  C   UNL     1       0.904   3.089  -1.591  0.00  0.00    +0.001 C 
ATOM      6  C   UNL     1       0.118   2.031  -2.362  0.00  0.00    +0.016 C 
BRANCH   2   7
ATOM      7  C   UNL     1       1.220  -0.003  -1.473  0.00  0.00    +0.219 C 
ATOM      8  O   UNL     1       1.519  -0.516  -2.587  0.00  0.00    -0.275 OA
ATOM      9  N   UNL     1       2.095  -0.230  -0.349  0.00  0.00    -0.312 N 
ATOM     10  H   UNL     1       1.862   0.149   0.592  0.00  0.00    +0.149 HD
BRANCH   9  11
ATOM     11  C   UNL     1       3.292  -1.072  -0.474  0.00  0.00    +0.073 C 
ATOM     12  C   UNL     1       4.417  -0.305  -1.222  0.00  0.00    +0.023 C 
ATOM     13  C   UNL     1       5.527   0.173  -0.279  0.00  0.00    +0.016 C 
ATOM     14  C   UNL     1       6.187  -1.016   0.457  0.00  0.00    +0.098 C 
ATOM     15  C   UNL     1       5.173  -2.120   0.864  0.00  0.00    +0.016 C 
ATOM     16  C   UNL     1       3.736  -1.591   0.914  0.00  0.00    +0.023 C 
BRANCH  14  17
ATOM     17  C   UNL     1       6.964  -0.523   1.648  0.00  0.00    +0.308 C 
ATOM     18  O   UNL     1       6.363  -0.029   2.641  0.00  0.00    -0.251 OA
BRANCH  17  19
ATOM     19  O   UNL     1       8.351  -0.607   1.649  0.00  0.00    -0.480 OA
ATOM     20  H   UNL     1       8.888  -0.282   2.442  0.00  0.00    +0.295 HD
ENDBRANCH  17  19
ENDBRANCH  14  17
ENDBRANCH   9  11
ENDBRANCH   2   7
ENDBRANCH   1   2
BRANCH   1  21
ATOM     21  C   UNL     1      -1.825  -1.086  -0.798  0.00  0.00    +0.125 C 
BRANCH  21  22
ATOM     22  C   UNL     1      -2.498  -0.472   0.407  0.00  0.00    +0.318 C 
ATOM     23  O   UNL     1      -2.111  -0.754   1.575  0.00  0.00    -0.250 OA
BRANCH  22  24
ATOM     24  O   UNL     1      -3.606   0.363   0.210  0.00  0.00    -0.426 OA
BRANCH  24  25
ATOM     25  C   UNL     1      -4.155   1.227   1.170  0.00  0.00    +0.132 A 
ATOM     26  C   UNL     1      -5.516   1.558   1.067  0.00  0.00    +0.050 A 
ATOM     27  C   UNL     1      -6.079   2.426   2.006  0.00  0.00    -0.041 A 
ATOM     28  C   UNL     1      -5.324   2.970   3.011  0.00  0.00    -0.044 A 
ATOM     29  C   UNL     1      -6.114   3.875   3.877  0.00  0.00    +0.036 C 
ATOM     30  C   UNL     1      -7.542   3.792   3.300  0.00  0.00    +0.009 C 
ATOM     31  C   UNL     1      -7.489   2.880   2.059  0.00  0.00    +0.036 C 
ATOM     32  C   UNL     1      -3.966   2.678   3.131  0.00  0.00    +0.007 A 
ATOM     33  C   UNL     1      -3.378   1.803   2.205  0.00  0.00    +0.046 A 
ENDBRANCH  24  25
ENDBRANCH  22  24
ENDBRANCH  21  22
BRANCH  21  34
ATOM     34  C   UNL     1      -0.783  -2.159  -0.400  0.00  0.00    +0.174 C 
BRANCH  34  35
ATOM     35  O   UNL     1      -0.088  -2.681  -1.517  0.00  0.00    -0.377 OA
BRANCH  35  36
ATOM     36  C   UNL     1      -0.859  -3.645  -2.207  0.00  0.00    +0.188 C 
BRANCH  36  37
ATOM     37  C   UNL     1       0.071  -4.475  -3.082  0.00  0.00    +0.187 C 
BRANCH  37  39
ATOM     38  C   UNL     1       2.262  -5.117  -2.630  0.00  0.00    +0.194 C 
ATOM     39  O   UNL     1       0.910  -5.256  -2.251  0.00  0.00    -0.381 OA
ENDBRANCH  37  39
ENDBRANCH  36  37
ENDBRANCH  35  36
ENDBRANCH  34  35
ENDBRANCH  21  34
ENDBRANCH   1  21
TORSDOF 14
