REMARK  Name = 
REMARK  9 active torsions:
REMARK  status: ('A' for Active; 'I' for Inactive)
REMARK    1  A    between atoms: C_1  and  C_2
REMARK    2  A    between atoms: C_2  and  O_3
REMARK    3  A    between atoms: O_3  and  C_4
REMARK    4  A    between atoms: C_10  and  C_11
REMARK    5  A    between atoms: C_11  and  O_12
REMARK    6  A    between atoms: N_15  and  C_16
REMARK    7  A    between atoms: C_16  and  C_17
REMARK    8  A    between atoms: C_20  and  C_23
REMARK    9  A    between atoms: C_28  and  C_29
REMARK                            x       y       z     vdW  Elec       q    Type
REMARK                         _______ _______ _______ _____ _____    ______ ____
ROOT
ATOM      1  C   UNL     1      -0.277  -0.295  -1.255  0.00  0.00    -0.028 A 
ATOM      2  C   UNL     1       0.213   0.992  -1.529  0.00  0.00    +0.006 A 
ATOM      3  C   UNL     1       1.309   1.495  -0.824  0.00  0.00    +0.009 A 
ATOM      4  C   UNL     1       1.934   0.717   0.163  0.00  0.00    -0.017 A 
ATOM      5  C   UNL     1       1.433  -0.562   0.450  0.00  0.00    +0.009 A 
ATOM      6  C   UNL     1       0.337  -1.065  -0.255  0.00  0.00    +0.006 A 
ENDROOT
BRANCH   4   7
ATOM      7  C   UNL     1       3.077   1.262   0.928  0.00  0.00    -0.007 A 
ATOM      8  C   UNL     1       2.865   2.419   1.697  0.00  0.00    +0.009 A 
ATOM      9  C   UNL     1       3.878   2.930   2.508  0.00  0.00    +0.001 A 
ATOM     10  C   UNL     1       5.115   2.291   2.566  0.00  0.00    +0.001 A 
ATOM     11  C   UNL     1       5.349   1.148   1.799  0.00  0.00    +0.012 A 
ATOM     12  C   UNL     1       4.348   0.625   0.960  0.00  0.00    +0.030 A 
BRANCH  12  13
ATOM     13  C   UNL     1       4.680  -0.543   0.108  0.00  0.00    +0.205 A 
ATOM     14  N   UNL     1       5.686  -1.403   0.364  0.00  0.00    -0.133 NA
ATOM     15  N   UNL     1       5.656  -2.248  -0.652  0.00  0.00    -0.176 N 
ATOM     16  N   UNL     1       4.694  -1.928  -1.499  0.00  0.00    -0.049 NA
ATOM     17  N   UNL     1       4.064  -0.854  -1.051  0.00  0.00    -0.108 NA
ATOM     18  H   UNL     1       6.306  -3.055  -0.771  0.00  0.00    +0.214 HD
ENDBRANCH  12  13
ENDBRANCH   4   7
BRANCH   1  19
ATOM     19  C   UNL     1      -1.498  -0.814  -1.968  0.00  0.00    +0.162 C 
BRANCH  19  28
ATOM     20  C   UNL     1      -3.255   0.593  -0.901  0.00  0.00    +0.299 A 
ATOM     21  N   UNL     1      -4.099   0.619   0.159  0.00  0.00    -0.195 NA
ATOM     22  C   UNL     1      -4.044  -0.643   0.614  0.00  0.00    +0.094 A 
ATOM     23  C   UNL     1      -4.662  -1.134   1.759  0.00  0.00    +0.030 A 
ATOM     24  C   UNL     1      -4.414  -2.466   2.120  0.00  0.00    +0.003 A 
ATOM     25  C   UNL     1      -3.587  -3.279   1.321  0.00  0.00    +0.017 A 
ATOM     26  C   UNL     1      -2.990  -2.775   0.145  0.00  0.00    +0.084 A 
ATOM     27  C   UNL     1      -3.212  -1.412  -0.162  0.00  0.00    +0.086 A 
ATOM     28  N   UNL     1      -2.689  -0.621  -1.130  0.00  0.00    -0.289 N 
BRANCH  26  29
ATOM     29  C   UNL     1      -2.315  -3.723  -0.751  0.00  0.00    +0.339 C 
ATOM     30  O   UNL     1      -2.676  -3.823  -1.954  0.00  0.00    -0.245 OA
BRANCH  29  31
ATOM     31  O   UNL     1      -1.341  -4.579  -0.246  0.00  0.00    -0.477 OA
ATOM     32  H   UNL     1      -0.886  -5.259  -0.844  0.00  0.00    +0.295 HD
ENDBRANCH  29  31
ENDBRANCH  26  29
BRANCH  20  33
ATOM     33  O   UNL     1      -2.951   1.723  -1.667  0.00  0.00    -0.464 OA
BRANCH  33  35
ATOM     34  C   UNL     1      -2.527   3.581  -0.171  0.00  0.00    +0.048 C 
ATOM     35  C   UNL     1      -3.372   3.039  -1.318  0.00  0.00    +0.229 C 
ENDBRANCH  33  35
ENDBRANCH  20  33
ENDBRANCH  19  28
ENDBRANCH   1  19
TORSDOF 8
