REMARK  Name = 
REMARK  10 active torsions:
REMARK  status: ('A' for Active; 'I' for Inactive)
REMARK    1  A    between atoms: C_1  and  C_2
REMARK    2  A    between atoms: C_2  and  C_3
REMARK    3  A    between atoms: C_3  and  C_4
REMARK    4  A    between atoms: C_4  and  C_5
REMARK    5  A    between atoms: C_5  and  O_6
REMARK    6  A    between atoms: O_6  and  C_7
REMARK    7  A    between atoms: N_14  and  C_18
REMARK    8  A    between atoms: C_20  and  C_21
REMARK    9  A    between atoms: C_22  and  O_23
REMARK   10  A    between atoms: C_24  and  O_25
REMARK                            x       y       z     vdW  Elec       q    Type
REMARK                         _______ _______ _______ _____ _____    ______ ____
ROOT
ATOM      1  C   UNL     1       1.936   0.185  -0.026  0.00  0.00    +0.406 C 
ATOM      2  O   UNL     1       1.490  -0.602   0.854  0.00  0.00    -0.226 OA
ATOM      3  N   UNL     1       1.051   1.032  -0.772  0.00  0.00    -0.233 N 
ATOM      4  C   UNL     1      -0.381   1.046  -0.627  0.00  0.00    +0.170 A 
ATOM      5  N   UNL     1      -1.002   0.197   0.232  0.00  0.00    -0.175 NA
ATOM      6  C   UNL     1      -2.352   0.189   0.385  0.00  0.00    +0.352 A 
ATOM      7  O   UNL     1      -2.866  -0.634   1.188  0.00  0.00    -0.244 OA
ATOM      8  N   UNL     1      -3.135   1.060  -0.333  0.00  0.00    -0.267 N 
ATOM      9  C   UNL     1      -2.542   1.915  -1.221  0.00  0.00    +0.135 A 
ATOM     10  C   UNL     1      -1.158   1.929  -1.382  0.00  0.00    +0.180 A 
ATOM     11  F   UNL     1      -0.588   2.789  -2.263  0.00  0.00    -0.200 F 
ATOM     12  H   UNL     1       1.492   1.675  -1.468  0.00  0.00    +0.160 HD
ENDROOT
BRANCH   8  13
ATOM     13  C   UNL     1      -4.608   1.069  -0.217  0.00  0.00    +0.255 C 
ATOM     14  O   UNL     1      -5.011   0.974   1.130  0.00  0.00    -0.348 OA
ATOM     15  C   UNL     1      -6.229   0.256   1.156  0.00  0.00    +0.149 C 
ATOM     16  C   UNL     1      -6.125  -0.872   2.185  0.00  0.00    +0.041 C 
ATOM     17  C   UNL     1      -6.538  -0.285  -0.248  0.00  0.00    +0.176 C 
ATOM     18  C   UNL     1      -5.229  -0.088  -0.979  0.00  0.00    +0.195 C 
BRANCH  17  19
ATOM     19  O   UNL     1      -7.562   0.484  -0.830  0.00  0.00    -0.387 OA
ATOM     20  H   UNL     1      -7.949  -0.060  -1.566  0.00  0.00    +0.210 HD
ENDBRANCH  17  19
BRANCH  18  21
ATOM     21  O   UNL     1      -5.408   0.241  -2.333  0.00  0.00    -0.385 OA
ATOM     22  H   UNL     1      -5.656  -0.602  -2.795  0.00  0.00    +0.210 HD
ENDBRANCH  18  21
ENDBRANCH   8  13
BRANCH   1  23
ATOM     23  O   UNL     1       3.309   0.246  -0.283  0.00  0.00    -0.450 OA
BRANCH  23  24
ATOM     24  C   UNL     1       4.259  -0.552   0.415  0.00  0.00    +0.234 C 
BRANCH  24  25
ATOM     25  C   UNL     1       5.662  -0.244  -0.106  0.00  0.00    +0.041 C 
BRANCH  25  26
ATOM     26  C   UNL     1       6.720  -1.085   0.623  0.00  0.00    +0.003 C 
BRANCH  26  28
ATOM     27  C   UNL     1       8.714   0.487   0.365  0.00  0.00    +0.004 C 
ATOM     28  C   UNL     1       8.130  -0.888   0.044  0.00  0.00    -0.003 C 
ENDBRANCH  26  28
ENDBRANCH  25  26
ENDBRANCH  24  25
ENDBRANCH  23  24
ENDBRANCH   1  23
TORSDOF 8
