REMARK  Name = 
REMARK  27 active torsions:
REMARK  status: ('A' for Active; 'I' for Inactive)
REMARK    1  A    between atoms: C_1  and  C_8
REMARK    2  A    between atoms: C_16  and  C_17
REMARK    3  A    between atoms: C_17  and  N_18
REMARK    4  A    between atoms: C_19  and  C_21
REMARK    5  A    between atoms: C_21  and  C_22
REMARK    6  A    between atoms: C_22  and  N_23
REMARK    7  A    between atoms: C_22  and  C_24
REMARK    8  A    between atoms: C_24  and  C_25
REMARK    9  A    between atoms: C_25  and  C_26
REMARK   10  A    between atoms: C_26  and  N_27
REMARK   11  A    between atoms: C_31  and  C_32
REMARK   12  A    between atoms: C_36  and  N_37
REMARK   13  A    between atoms: C_42  and  N_43
REMARK   14  A    between atoms: C_47  and  C_54
REMARK   15  A    between atoms: C_62  and  C_63
REMARK   16  A    between atoms: C_63  and  N_64
REMARK   17  A    between atoms: C_65  and  C_67
REMARK   18  A    between atoms: C_67  and  C_68
REMARK   19  A    between atoms: C_68  and  N_69
REMARK   20  A    between atoms: C_68  and  C_70
REMARK   21  A    between atoms: C_70  and  C_71
REMARK   22  A    between atoms: C_71  and  C_72
REMARK   23  A    between atoms: C_72  and  N_73
REMARK   24  A    between atoms: CA_77  and  C_78
REMARK   25  A    between atoms: C_78  and  O_79
REMARK   26  A    between atoms: CA_83  and  N_84
REMARK   27  A    between atoms: C_89  and  N_90
REMARK                            x       y       z     vdW  Elec       q    Type
REMARK                         _______ _______ _______ _____ _____    ______ ____
ROOT
ATOM      1  C   UNL     1      -4.210   0.004   0.537  0.00  0.00    +0.179 C 
ATOM      2  N   UNL     1      -2.930  -0.508   0.035  0.00  0.00    -0.297 N 
ATOM      3  C   UNL     1      -2.849  -1.453  -1.044  0.00  0.00    +0.260 C 
ATOM      4  O   UNL     1      -3.843  -1.597  -1.809  0.00  0.00    -0.269 OA
ATOM      5  C   UNL     1      -1.587  -2.201  -1.293  0.00  0.00    +0.110 C 
ATOM      6  N   UNL     1      -0.433  -1.865  -0.509  0.00  0.00    -0.279 N 
ATOM      7  C   UNL     1       0.858  -1.667  -1.097  0.00  0.00    +0.239 C 
ATOM      8  O   UNL     1       1.836  -2.318  -0.643  0.00  0.00    -0.273 OA
ATOM      9  C   UNL     1       1.012  -0.753  -2.296  0.00  0.00    +0.176 C 
ATOM     10  N   UNL     1       0.143   0.426  -2.175  0.00  0.00    -0.301 N 
ATOM     11  C   UNL     1       0.229   1.389  -1.115  0.00  0.00    +0.234 C 
ATOM     12  O   UNL     1       0.741   1.065  -0.007  0.00  0.00    -0.274 OA
ATOM     13  C   UNL     1      -0.312   2.778  -1.315  0.00  0.00    +0.156 C 
ATOM     14  C   UNL     1       0.790   3.814  -1.093  0.00  0.00    +0.038 C 
ATOM     15  N   UNL     1      -1.425   3.030  -0.399  0.00  0.00    -0.303 N 
ATOM     16  C   UNL     1      -2.478   3.955  -0.716  0.00  0.00    +0.232 C 
ATOM     17  O   UNL     1      -2.606   4.386  -1.891  0.00  0.00    -0.274 OA
ATOM     18  C   UNL     1      -3.412   4.450   0.355  0.00  0.00    +0.155 C 
ATOM     19  C   UNL     1      -4.831   3.875   0.176  0.00  0.00    +0.132 C 
ATOM     20  N   UNL     1      -4.904   2.504   0.682  0.00  0.00    -0.312 N 
ATOM     21  C   UNL     1      -4.461   1.369  -0.082  0.00  0.00    +0.235 C 
ATOM     22  O   UNL     1      -4.291   1.495  -1.329  0.00  0.00    -0.274 OA
ATOM     23  C   UNL     1      -1.467  -3.196  -2.204  0.00  0.00    +0.104 C 
ATOM     24  H   UNL     1      -2.051  -0.085   0.408  0.00  0.00    +0.150 HD
ATOM     25  H   UNL     1      -0.500  -1.935   0.530  0.00  0.00    +0.155 HD
ATOM     26  H   UNL     1      -0.544   0.592  -2.941  0.00  0.00    +0.150 HD
ATOM     27  H   UNL     1      -1.322   2.726   0.599  0.00  0.00    +0.149 HD
ATOM     28  H   UNL     1      -5.303   2.384   1.636  0.00  0.00    +0.149 HD
ENDROOT
BRANCH   1  29
ATOM     29  C   UNL     1      -4.222  -0.022   2.102  0.00  0.00    +0.104 C 
ATOM     30  C   UNL     1      -5.647  -0.210   2.674  0.00  0.00    +0.048 C 
ATOM     31  C   UNL     1      -6.120  -1.666   2.549  0.00  0.00    +0.147 C 
ATOM     32  N   UNL     1      -5.113  -2.603   3.047  0.00  0.00    -0.256 NA
ATOM     33  C   UNL     1      -3.840  -2.354   3.048  0.00  0.00    +0.173 C 
ATOM     34  N   UNL     1      -2.928  -3.343   3.522  0.00  0.00    -0.331 N 
ATOM     35  N   UNL     1      -3.347  -1.075   2.623  0.00  0.00    -0.312 N 
ATOM     36  H   UNL     1      -1.903  -3.135   3.589  0.00  0.00    +0.145 HD
ATOM     37  H   UNL     1      -3.255  -4.305   3.751  0.00  0.00    +0.145 HD
ATOM     38  H   UNL     1      -2.321  -0.888   2.691  0.00  0.00    +0.149 HD
ENDBRANCH   1  29
BRANCH  23  39
ATOM     39  N   UNL     1      -2.572  -3.803  -2.889  0.00  0.00    -0.274 N 
ATOM     40  C   UNL     1      -2.364  -4.589  -4.069  0.00  0.00    +0.301 C 
ATOM     41  N   UNL     1      -3.384  -5.479  -4.525  0.00  0.00    -0.313 N 
ATOM     42  O   UNL     1      -1.290  -4.491  -4.718  0.00  0.00    -0.253 OA
ATOM     43  H   UNL     1      -3.512  -3.839  -2.438  0.00  0.00    +0.156 HD
ATOM     44  H   UNL     1      -3.239  -6.053  -5.385  0.00  0.00    +0.146 HD
ATOM     45  H   UNL     1      -4.269  -5.595  -3.981  0.00  0.00    +0.146 HD
ENDBRANCH  23  39
BRANCH  18  46
ATOM     46  N   UNL     1      -3.428   5.917   0.347  0.00  0.00    -0.319 NA
ATOM     47  H   UNL     1      -4.001   6.254  -0.461  0.00  0.00    +0.119 HD
ATOM     48  H   UNL     1      -3.896   6.249   1.224  0.00  0.00    +0.119 HD
ENDBRANCH  18  46
BRANCH   9  49
ATOM     49  C   UNL     1       2.464  -0.333  -2.651  0.00  0.00    +0.136 C 
BRANCH  49  50
ATOM     50  N   UNL     1       3.321  -0.129  -1.479  0.00  0.00    -0.313 N 
ATOM     51  C   UNL     1       4.389  -1.033  -1.144  0.00  0.00    +0.215 C 
ATOM     52  O   UNL     1       4.626  -2.028  -1.881  0.00  0.00    -0.276 OA
ATOM     53  H   UNL     1       3.127   0.681  -0.850  0.00  0.00    +0.149 HD
BRANCH  51  54
ATOM     54  C   UNL     1       5.159  -0.868   0.142  0.00  0.00    +0.114 C 
BRANCH  54  55
ATOM     55  C   UNL     1       6.688  -0.999  -0.070  0.00  0.00    +0.059 C 
BRANCH  55  56
ATOM     56  N   UNL     1       7.235   0.234  -0.637  0.00  0.00    -0.327 NA
ATOM     57  H   UNL     1       8.251   0.084  -0.830  0.00  0.00    +0.118 HD
ATOM     58  H   UNL     1       6.787   0.400  -1.568  0.00  0.00    +0.118 HD
ENDBRANCH  55  56
BRANCH  55  59
ATOM     59  C   UNL     1       7.427  -1.391   1.233  0.00  0.00    +0.020 C 
BRANCH  59  60
ATOM     60  C   UNL     1       7.229  -0.455   2.441  0.00  0.00    +0.016 C 
BRANCH  60  61
ATOM     61  C   UNL     1       7.974   0.884   2.301  0.00  0.00    +0.078 C 
BRANCH  61  62
ATOM     62  N   UNL     1       8.017   1.601   3.576  0.00  0.00    -0.330 NA
ATOM     63  H   UNL     1       8.557   1.030   4.267  0.00  0.00    +0.118 HD
ATOM     64  H   UNL     1       7.043   1.706   3.939  0.00  0.00    +0.118 HD
ENDBRANCH  61  62
ENDBRANCH  60  61
ENDBRANCH  59  60
ENDBRANCH  55  59
ENDBRANCH  54  55
ENDBRANCH  51  54
ENDBRANCH  49  50
ENDBRANCH   9  49
TORSDOF 12
REMARK  Name = 
REMARK  27 active torsions:
REMARK  status: ('A' for Active; 'I' for Inactive)
REMARK    1  A    between atoms: C_1  and  C_8
REMARK    2  A    between atoms: C_16  and  C_17
REMARK    3  A    between atoms: C_17  and  N_18
REMARK    4  A    between atoms: C_19  and  C_21
REMARK    5  A    between atoms: C_21  and  C_22
REMARK    6  A    between atoms: C_22  and  N_23
REMARK    7  A    between atoms: C_22  and  C_24
REMARK    8  A    between atoms: C_24  and  C_25
REMARK    9  A    between atoms: C_25  and  C_26
REMARK   10  A    between atoms: C_26  and  N_27
REMARK   11  A    between atoms: C_31  and  C_32
REMARK   12  A    between atoms: C_36  and  N_37
REMARK   13  A    between atoms: C_42  and  N_43
REMARK   14  A    between atoms: C_47  and  C_54
REMARK   15  A    between atoms: C_62  and  C_63
REMARK   16  A    between atoms: C_63  and  N_64
REMARK   17  A    between atoms: C_65  and  C_67
REMARK   18  A    between atoms: C_67  and  C_68
REMARK   19  A    between atoms: C_68  and  N_69
REMARK   20  A    between atoms: C_68  and  C_70
REMARK   21  A    between atoms: C_70  and  C_71
REMARK   22  A    between atoms: C_71  and  C_72
REMARK   23  A    between atoms: C_72  and  N_73
REMARK   24  A    between atoms: CA_77  and  C_78
REMARK   25  A    between atoms: C_78  and  O_79
REMARK   26  A    between atoms: CA_83  and  N_84
REMARK   27  A    between atoms: C_89  and  N_90
REMARK                            x       y       z     vdW  Elec       q    Type
REMARK                         _______ _______ _______ _____ _____    ______ ____
ROOT
ATOM      1  C   UNL     1      -3.241   0.531   1.364  0.00  0.00    +0.179 C 
ATOM      2  N   UNL     1      -2.083   1.007   0.584  0.00  0.00    -0.297 N 
ATOM      3  C   UNL     1      -2.091   1.958  -0.502  0.00  0.00    +0.260 C 
ATOM      4  O   UNL     1      -3.109   2.667  -0.710  0.00  0.00    -0.269 OA
ATOM      5  C   UNL     1      -0.882   2.127  -1.361  0.00  0.00    +0.110 C 
ATOM      6  N   UNL     1       0.373   1.639  -0.870  0.00  0.00    -0.279 N 
ATOM      7  C   UNL     1       1.049   0.575  -1.555  0.00  0.00    +0.239 C 
ATOM      8  O   UNL     1       1.216   0.638  -2.804  0.00  0.00    -0.273 OA
ATOM      9  C   UNL     1       1.397  -0.687  -0.810  0.00  0.00    +0.176 C 
ATOM     10  N   UNL     1       0.282  -1.625  -0.968  0.00  0.00    -0.301 N 
ATOM     11  C   UNL     1      -0.152  -2.513   0.075  0.00  0.00    +0.236 C 
ATOM     12  O   UNL     1       0.344  -2.428   1.232  0.00  0.00    -0.274 OA
ATOM     13  CA  UNL     1      -1.181  -3.582  -0.207  0.00  0.00    +0.184 C 
ATOM     14  N   UNL     1      -2.394  -2.977  -0.772  0.00  0.00    -0.301 N 
ATOM     15  C   UNL     1      -3.718  -3.428  -0.437  0.00  0.00    +0.232 C 
ATOM     16  O   UNL     1      -3.880  -4.383   0.374  0.00  0.00    -0.274 OA
ATOM     17  CA  UNL     1      -4.921  -2.745  -1.044  0.00  0.00    +0.155 C 
ATOM     18  C   UNL     1      -5.799  -2.092   0.040  0.00  0.00    +0.132 C 
ATOM     19  N   UNL     1      -5.000  -1.259   0.938  0.00  0.00    -0.312 N 
ATOM     20  C   UNL     1      -4.329  -0.067   0.501  0.00  0.00    +0.235 C 
ATOM     21  O   UNL     1      -4.665   0.478  -0.581  0.00  0.00    -0.274 OA
ATOM     22  C   UNL     1      -0.909   2.732  -2.568  0.00  0.00    +0.104 C 
ATOM     23  H   UNL     1      -1.195   0.488   0.760  0.00  0.00    +0.150 HD
ATOM     24  H   UNL     1       0.575   1.763   0.147  0.00  0.00    +0.155 HD
ATOM     25  H   UNL     1      -0.081  -1.781  -1.935  0.00  0.00    +0.150 HD
ATOM     26  H   UNL     1      -2.298  -2.275  -1.542  0.00  0.00    +0.150 HD
ATOM     27  H   UNL     1      -4.864  -1.589   1.917  0.00  0.00    +0.149 HD
ENDROOT
BRANCH   1  28
ATOM     28  C   UNL     1      -3.747   1.543   2.435  0.00  0.00    +0.104 C 
ATOM     29  C   UNL     1      -4.468   2.783   1.855  0.00  0.00    +0.048 C 
ATOM     30  C   UNL     1      -5.258   3.511   2.945  0.00  0.00    +0.147 C 
ATOM     31  N   UNL     1      -6.186   2.599   3.600  0.00  0.00    -0.256 NA
ATOM     32  C   UNL     1      -5.866   1.368   3.854  0.00  0.00    +0.173 C 
ATOM     33  N   UNL     1      -6.788   0.524   4.545  0.00  0.00    -0.331 N 
ATOM     34  N   UNL     1      -4.610   0.839   3.400  0.00  0.00    -0.312 N 
ATOM     35  H   UNL     1      -6.548  -0.470   4.747  0.00  0.00    +0.145 HD
ATOM     36  H   UNL     1      -7.721   0.893   4.843  0.00  0.00    +0.145 HD
ATOM     37  H   UNL     1      -4.276  -0.058   3.816  0.00  0.00    +0.149 HD
ENDBRANCH   1  28
BRANCH  22  38
ATOM     38  N   UNL     1      -2.114   3.075  -3.267  0.00  0.00    -0.274 N 
ATOM     39  C   UNL     1      -2.110   3.991  -4.370  0.00  0.00    +0.301 C 
ATOM     40  N   UNL     1      -3.316   4.244  -5.089  0.00  0.00    -0.313 N 
ATOM     41  O   UNL     1      -1.048   4.577  -4.714  0.00  0.00    -0.253 OA
ATOM     42  H   UNL     1      -3.003   2.561  -3.066  0.00  0.00    +0.156 HD
ATOM     43  H   UNL     1      -4.214   3.808  -4.790  0.00  0.00    +0.146 HD
ATOM     44  H   UNL     1      -3.314   4.886  -5.914  0.00  0.00    +0.146 HD
ENDBRANCH  22  38
BRANCH  17  45
ATOM     45  N   UNL     1      -5.710  -3.690  -1.833  0.00  0.00    -0.319 NA
ATOM     46  H1  UNL     1      -5.108  -4.081  -2.593  0.00  0.00    +0.119 HD
ATOM     47  H2  UNL     1      -6.003  -4.494  -1.229  0.00  0.00    +0.119 HD
ENDBRANCH  17  45
BRANCH   9  48
ATOM     48  C   UNL     1       2.689  -1.343  -1.333  0.00  0.00    +0.136 C 
BRANCH  48  49
ATOM     49  N   UNL     1       3.790  -0.386  -1.426  0.00  0.00    -0.313 N 
ATOM     50  C   UNL     1       4.465   0.148  -0.279  0.00  0.00    +0.215 C 
ATOM     51  O   UNL     1       4.041  -0.100   0.883  0.00  0.00    -0.276 OA
ATOM     52  H   UNL     1       4.145  -0.143  -2.380  0.00  0.00    +0.149 HD
BRANCH  50  53
ATOM     53  C   UNL     1       5.662   1.041  -0.461  0.00  0.00    +0.114 C 
BRANCH  53  54
ATOM     54  C   UNL     1       6.876   0.588   0.386  0.00  0.00    +0.059 C 
BRANCH  54  55
ATOM     55  N   UNL     1       7.247  -0.801   0.090  0.00  0.00    -0.327 NA
ATOM     56  H   UNL     1       6.513  -1.442   0.468  0.00  0.00    +0.118 HD
ATOM     57  H   UNL     1       7.291  -0.940  -0.947  0.00  0.00    +0.118 HD
ENDBRANCH  54  55
BRANCH  54  58
ATOM     58  C   UNL     1       8.086   1.513   0.125  0.00  0.00    +0.020 C 
BRANCH  58  59
ATOM     59  C   UNL     1       9.086   1.583   1.294  0.00  0.00    +0.016 C 
BRANCH  59  60
ATOM     60  C   UNL     1       9.830   0.265   1.565  0.00  0.00    +0.078 C 
BRANCH  60  61
ATOM     61  N   UNL     1       9.027  -0.629   2.393  0.00  0.00    -0.330 NA
ATOM     62  H   UNL     1       9.553  -1.528   2.492  0.00  0.00    +0.118 HD
ATOM     63  H   UNL     1       8.962  -0.216   3.353  0.00  0.00    +0.118 HD
ENDBRANCH  60  61
ENDBRANCH  59  60
ENDBRANCH  58  59
ENDBRANCH  54  58
ENDBRANCH  53  54
ENDBRANCH  50  53
ENDBRANCH  48  49
ENDBRANCH   9  48
BRANCH  13  64
ATOM     64  C   UNL     1      -0.628  -4.637  -1.172  0.00  0.00    +0.187 C 
BRANCH  64  65
ATOM     65  O   UNL     1       0.493  -5.262  -0.607  0.00  0.00    -0.393 OA
ATOM     66  H   UNL     1       0.887  -5.828  -1.320  0.00  0.00    +0.209 HD
ENDBRANCH  64  65
ENDBRANCH  13  64
TORSDOF 14
