REMARK  Name = 
REMARK  6 active torsions:
REMARK  status: ('A' for Active; 'I' for Inactive)
REMARK    1  A    between atoms: C_1  and  C_2
REMARK    2  A    between atoms: C_2  and  C_3
REMARK    3  A    between atoms: C_2  and  C_5
REMARK    4  A    between atoms: C_3  and  S_4
REMARK    5  A    between atoms: C_11  and  C_12
REMARK    6  A    between atoms: C_12  and  O_13
REMARK                            x       y       z     vdW  Elec       q    Type
REMARK                         _______ _______ _______ _____ _____    ______ ____
ROOT
ATOM      1  C   UNL     1       1.007   0.680   0.190  0.00  0.00    +0.220 C 
ATOM      2  O   UNL     1       1.742   1.702   0.091  0.00  0.00    -0.275 OA
ATOM      3  N   UNL     1      -0.404   0.803  -0.083  0.00  0.00    -0.288 N 
ATOM      4  C   UNL     1      -1.018   2.081  -0.409  0.00  0.00    +0.109 C 
ATOM      5  C   UNL     1      -2.494   1.790  -0.640  0.00  0.00    +0.021 C 
ATOM      6  C   UNL     1      -2.747   0.421  -0.016  0.00  0.00    +0.035 C 
ATOM      7  C   UNL     1      -1.384  -0.272   0.021  0.00  0.00    +0.184 C 
ENDROOT
BRANCH   1   9
ATOM      8  C   UNL     1       1.994  -0.532   2.125  0.00  0.00    +0.018 C 
ATOM      9  C   UNL     1       1.632  -0.625   0.639  0.00  0.00    +0.082 C 
BRANCH   9  10
ATOM     10  C   UNL     1       2.876  -0.974  -0.200  0.00  0.00    +0.078 C 
BRANCH  10  11
ATOM     11  S   UNL     1       2.428  -1.354  -1.926  0.00  0.00    -0.178 S 
ATOM     12  H   UNL     1       2.194  -0.006  -2.259  0.00  0.00    +0.102 HD
ENDBRANCH  10  11
ENDBRANCH   9  10
ENDBRANCH   1   9
BRANCH   7  13
ATOM     13  C   UNL     1      -1.237  -1.231  -1.129  0.00  0.00    +0.325 C 
ATOM     14  O   UNL     1      -1.114  -0.800  -2.307  0.00  0.00    -0.249 OA
BRANCH  13  15
ATOM     15  O   UNL     1      -1.265  -2.602  -0.891  0.00  0.00    -0.479 OA
ATOM     16  H   UNL     1      -1.172  -3.262  -1.653  0.00  0.00    +0.295 HD
ENDBRANCH  13  15
ENDBRANCH   7  13
TORSDOF 5
