REMARK  Name = 
REMARK  24 active torsions:
REMARK  status: ('A' for Active; 'I' for Inactive)
REMARK    1  A    between atoms: O_1  and  C_2
REMARK    2  A    between atoms: C_2  and  C_3
REMARK    3  A    between atoms: C_3  and  N_4
REMARK    4  A    between atoms: C_3  and  C_5
REMARK    5  A    between atoms: C_3  and  C_7
REMARK    6  A    between atoms: C_5  and  O_6
REMARK    7  A    between atoms: C_7  and  O_8
REMARK    8  A    between atoms: C_9  and  C_10
REMARK    9  A    between atoms: C_10  and  C_11
REMARK   10  A    between atoms: C_11  and  C_12
REMARK   11  A    between atoms: C_12  and  C_13
REMARK   12  A    between atoms: C_13  and  C_14
REMARK   13  A    between atoms: C_14  and  O_15
REMARK   14  A    between atoms: C_14  and  C_16
REMARK   15  A    between atoms: C_14  and  C_17
REMARK   16  A    between atoms: C_18  and  C_19
REMARK   17  A    between atoms: C_20  and  O_21
REMARK   18  A    between atoms: C_23  and  O_24
REMARK   19  A    between atoms: C_25  and  C_26
REMARK   20  A    between atoms: C_26  and  C_27
REMARK   21  A    between atoms: C_28  and  C_29
REMARK   22  A    between atoms: C_29  and  C_30
REMARK   23  A    between atoms: C_30  and  C_31
REMARK   24  A    between atoms: C_31  and  C_32
REMARK                            x       y       z     vdW  Elec       q    Type
REMARK                         _______ _______ _______ _____ _____    ______ ____
ROOT
ATOM      1  C   UNL     1      -0.040   0.138  -0.178  0.00  0.00    -0.000 C 
ENDROOT
BRANCH   1   2
ATOM      2  N   UNL     1       0.025   1.591  -0.432  0.00  0.00    +0.386 N 
ATOM      3  H   UNL     1       0.494   1.778  -1.348  0.00  0.00    -0.089 HD
ATOM      4  H   UNL     1      -0.936   2.007  -0.461  0.00  0.00    -0.089 HD
ATOM      5  H   UNL     1       0.567   2.080   0.315  0.00  0.00    -0.089 HD
ENDBRANCH   1   2
BRANCH   1   6
ATOM      6  C   UNL     1       1.391  -0.463  -0.183  0.00  0.00    +0.147 C 
BRANCH   6   7
ATOM      7  O   UNL     1       2.201   0.165   0.773  0.00  0.00    -0.396 OA
ATOM      8  H   UNL     1       3.105  -0.234   0.671  0.00  0.00    +0.209 HD
ENDBRANCH   6   7
ENDBRANCH   1   6
BRANCH   1   9
ATOM      9  C   UNL     1      -0.866  -0.529  -1.310  0.00  0.00    +0.147 C 
BRANCH   9  10
ATOM     10  O   UNL     1      -0.960  -1.919  -1.116  0.00  0.00    -0.396 OA
ATOM     11  H   UNL     1      -1.903  -2.124  -0.880  0.00  0.00    +0.209 HD
ENDBRANCH   9  10
ENDBRANCH   1   9
BRANCH   1  12
ATOM     12  C   UNL     1      -0.743  -0.127   1.179  0.00  0.00    +0.147 C 
BRANCH  12  13
ATOM     13  O   UNL     1      -0.091   0.546   2.220  0.00  0.00    -0.396 OA
ATOM     14  H   UNL     1      -0.633   0.381   3.038  0.00  0.00    +0.209 HD
ENDBRANCH  12  13
ENDBRANCH   1  12
TORSDOF 7
REMARK  Name = 
REMARK  24 active torsions:
REMARK  status: ('A' for Active; 'I' for Inactive)
REMARK    1  A    between atoms: O_1  and  C_2
REMARK    2  A    between atoms: C_2  and  C_3
REMARK    3  A    between atoms: C_3  and  N_4
REMARK    4  A    between atoms: C_3  and  C_5
REMARK    5  A    between atoms: C_3  and  C_7
REMARK    6  A    between atoms: C_5  and  O_6
REMARK    7  A    between atoms: C_7  and  O_8
REMARK    8  A    between atoms: C_9  and  C_10
REMARK    9  A    between atoms: C_10  and  C_11
REMARK   10  A    between atoms: C_11  and  C_12
REMARK   11  A    between atoms: C_12  and  C_13
REMARK   12  A    between atoms: C_13  and  C_14
REMARK   13  A    between atoms: C_14  and  O_15
REMARK   14  A    between atoms: C_14  and  C_16
REMARK   15  A    between atoms: C_14  and  C_17
REMARK   16  A    between atoms: C_18  and  C_19
REMARK   17  A    between atoms: C_20  and  O_21
REMARK   18  A    between atoms: C_23  and  O_24
REMARK   19  A    between atoms: C_25  and  C_26
REMARK   20  A    between atoms: C_26  and  C_27
REMARK   21  A    between atoms: C_28  and  C_29
REMARK   22  A    between atoms: C_29  and  C_30
REMARK   23  A    between atoms: C_30  and  C_31
REMARK   24  A    between atoms: C_31  and  C_32
REMARK                            x       y       z     vdW  Elec       q    Type
REMARK                         _______ _______ _______ _____ _____    ______ ____
ROOT
ATOM      1  C   UNL     1       0.891  -0.012   1.615  0.00  0.00    +0.046 C 
ATOM      2  C   UNL     1       0.393  -0.902   2.781  0.00  0.00    +0.124 C 
ATOM      3  C   UNL     1       0.517  -2.340   2.291  0.00  0.00    +0.063 C 
ATOM      4  C   UNL     1       1.660  -2.318   1.280  0.00  0.00    +0.121 C 
ATOM      5  C   UNL     1       1.486  -0.975   0.559  0.00  0.00    +0.031 C 
ENDROOT
BRANCH   1   7
ATOM      6  C   UNL     1      -1.291   0.435   0.450  0.00  0.00    +0.003 C 
ATOM      7  C   UNL     1      -0.167   0.903   1.024  0.00  0.00    -0.022 C 
BRANCH   6   8
ATOM      8  C   UNL     1      -2.311   1.355  -0.205  0.00  0.00    +0.081 C 
ATOM      9  C   UNL     1      -2.980   2.241   0.863  0.00  0.00    +0.046 C 
BRANCH   8  10
ATOM     10  O   UNL     1      -1.657   2.209  -1.111  0.00  0.00    -0.385 OA
ATOM     11  H   UNL     1      -1.168   1.643  -1.764  0.00  0.00    +0.211 HD
ENDBRANCH   8  10
BRANCH   8  12
ATOM     12  C   UNL     1      -3.372   0.523  -0.978  0.00  0.00    +0.039 C 
BRANCH  12  13
ATOM     13  C   UNL     1      -4.261  -0.396  -0.097  0.00  0.00    +0.003 C 
BRANCH  13  14
ATOM     14  C   UNL     1      -5.671   0.179   0.124  0.00  0.00    -0.000 C 
BRANCH  14  16
ATOM     15  C   UNL     1      -7.792   0.830  -1.092  0.00  0.00    +0.004 C 
ATOM     16  C   UNL     1      -6.616  -0.142  -1.047  0.00  0.00    -0.003 C 
ENDBRANCH  14  16
ENDBRANCH  13  14
ENDBRANCH  12  13
ENDBRANCH   8  12
ENDBRANCH   6   8
ENDBRANCH   1   7
BRANCH   2  17
ATOM     17  O   UNL     1      -0.930  -0.627   3.164  0.00  0.00    -0.391 OA
ATOM     18  H   UNL     1      -0.902   0.206   3.703  0.00  0.00    +0.210 HD
ENDBRANCH   2  17
BRANCH   4  19
ATOM     19  O   UNL     1       2.894  -2.375   1.954  0.00  0.00    -0.391 OA
ATOM     20  H   UNL     1       3.033  -3.324   2.201  0.00  0.00    +0.210 HD
ENDBRANCH   4  19
BRANCH   5  21
ATOM     21  C   UNL     1       2.774  -0.423  -0.088  0.00  0.00    +0.033 C 
BRANCH  21  22
ATOM     22  C   UNL     1       3.210  -1.285  -1.251  0.00  0.00    -0.031 C 
ATOM     23  C   UNL     1       4.486  -1.486  -1.623  0.00  0.00    -0.031 C 
BRANCH  23  24
ATOM     24  C   UNL     1       5.695  -0.949  -0.899  0.00  0.00    +0.027 C 
BRANCH  24  25
ATOM     25  C   UNL     1       5.910   0.555  -1.141  0.00  0.00    +0.015 C 
BRANCH  25  26
ATOM     26  C   UNL     1       6.166   0.873  -2.622  0.00  0.00    +0.125 C 
BRANCH  26  27
ATOM     27  C   UNL     1       6.524   2.316  -2.795  0.00  0.00    +0.356 C 
ATOM     28  O   UNL     1       5.651   3.208  -2.635  0.00  0.00    -0.246 OA
ATOM     29  O   UNL     1       7.831   2.676  -3.095  0.00  0.00    -0.246 OA
ENDBRANCH  26  27
ENDBRANCH  25  26
ENDBRANCH  24  25
ENDBRANCH  23  24
ENDBRANCH  21  22
ENDBRANCH   5  21
TORSDOF 15
