REMARK  Name = 
REMARK  8 active torsions:
REMARK  status: ('A' for Active; 'I' for Inactive)
REMARK    1  A    between atoms: C_1  and  N_2
REMARK    2  A    between atoms: N_2  and  C_3
REMARK    3  A    between atoms: N_2  and  C_4
REMARK    4  A    between atoms: C_4  and  C_5
REMARK    5  A    between atoms: C_5  and  O_6
REMARK    6  A    between atoms: O_6  and  C_7
REMARK    7  A    between atoms: C_7  and  C_8
REMARK    8  A    between atoms: C_7  and  C_15
REMARK                            x       y       z     vdW  Elec       q    Type
REMARK                         _______ _______ _______ _____ _____    ______ ____
ROOT
ATOM      1  C   UNL     1      -0.488   0.811   0.641  0.00  0.00    +0.197 C 
ENDROOT
BRANCH   1   2
ATOM      2  C   UNL     1      -1.412  -0.365   0.897  0.00  0.00    -0.013 A 
ATOM      3  C   UNL     1      -1.890  -1.155  -0.168  0.00  0.00    +0.008 A 
ATOM      4  C   UNL     1      -2.761  -2.220   0.077  0.00  0.00    +0.020 A 
ATOM      5  C   UNL     1      -3.172  -2.504   1.385  0.00  0.00    +0.041 A 
ATOM      6 CL   UNL     1      -4.265  -3.841   1.690  0.00  0.00    -0.084 Cl
ATOM      7  C   UNL     1      -2.713  -1.716   2.448  0.00  0.00    +0.020 A 
ATOM      8  C   UNL     1      -1.842  -0.649   2.207  0.00  0.00    +0.008 A 
ENDBRANCH   1   2
BRANCH   1   9
ATOM      9  C   UNL     1      -1.306   2.014   0.248  0.00  0.00    +0.074 A 
ATOM     10  C   UNL     1      -1.254   3.200   1.001  0.00  0.00    +0.026 A 
ATOM     11  C   UNL     1      -2.000   4.307   0.590  0.00  0.00    +0.003 A 
ATOM     12  C   UNL     1      -2.785   4.227  -0.561  0.00  0.00    +0.020 A 
ATOM     13  C   UNL     1      -2.815   3.034  -1.287  0.00  0.00    +0.111 A 
ATOM     14  N   UNL     1      -2.080   1.968  -0.874  0.00  0.00    -0.257 NA
ENDBRANCH   1   9
BRANCH   1  15
ATOM     15  O   UNL     1       0.416   0.524  -0.414  0.00  0.00    -0.365 OA
BRANCH  15  16
ATOM     16  C   UNL     1       1.539  -0.186   0.068  0.00  0.00    +0.176 C 
BRANCH  16  17
ATOM     17  C   UNL     1       2.412  -0.594  -1.121  0.00  0.00    +0.112 C 
BRANCH  17  19
ATOM     18  C   UNL     1       4.735  -1.047  -1.639  0.00  0.00    +0.104 C 
ATOM     19  N   UNL     1       3.659  -1.242  -0.654  0.00  0.00    -0.306 NA
ATOM     20  C   UNL     1       3.456  -2.685  -0.429  0.00  0.00    +0.104 C 
ENDBRANCH  17  19
ENDBRANCH  16  17
ENDBRANCH  15  16
ENDBRANCH   1  15
TORSDOF 6
