REMARK  Name = 
REMARK  0 active torsions:
REMARK  status: ('A' for Active; 'I' for Inactive)
REMARK                            x       y       z     vdW  Elec       q    Type
REMARK                         _______ _______ _______ _____ _____    ______ ____
ROOT
ATOM      1  N   UNL     1       1.148   3.066   0.475  0.00  0.00    -0.313 N 
ATOM      2  C   UNL     1      -0.076   2.385   0.184  0.00  0.00    +0.308 C 
ATOM      3  O   UNL     1      -1.149   3.046   0.162  0.00  0.00    -0.252 OA
ATOM      4  N   UNL     1      -0.100   0.958  -0.041  0.00  0.00    -0.223 N 
ATOM      5  C   UNL     1      -1.341   0.249  -0.135  0.00  0.00    +0.050 A 
ATOM      6  C   UNL     1      -2.270   0.599  -1.129  0.00  0.00    +0.024 A 
ATOM      7  C   UNL     1      -3.491  -0.070  -1.223  0.00  0.00    +0.002 A 
ATOM      8  C   UNL     1      -3.797  -1.091  -0.325  0.00  0.00    +0.001 A 
ATOM      9  C   UNL     1      -2.878  -1.453   0.663  0.00  0.00    +0.010 A 
ATOM     10  C   UNL     1      -1.634  -0.804   0.756  0.00  0.00    -0.003 A 
ATOM     11  C   UNL     1      -0.718  -1.202   1.850  0.00  0.00    +0.010 C 
ATOM     12  C   UNL     1       0.622  -1.224   1.789  0.00  0.00    +0.010 C 
ATOM     13  C   UNL     1       1.447  -0.851   0.616  0.00  0.00    -0.003 A 
ATOM     14  C   UNL     1       2.658  -1.534   0.412  0.00  0.00    +0.010 A 
ATOM     15  C   UNL     1       3.495  -1.195  -0.654  0.00  0.00    +0.001 A 
ATOM     16  C   UNL     1       3.140  -0.160  -1.520  0.00  0.00    +0.002 A 
ATOM     17  C   UNL     1       1.952   0.542  -1.316  0.00  0.00    +0.024 A 
ATOM     18  C   UNL     1       1.106   0.213  -0.244  0.00  0.00    +0.050 A 
ATOM     19  H   UNL     1       2.043   2.550   0.616  0.00  0.00    +0.147 HD
ATOM     20  H   UNL     1       1.149   4.102   0.607  0.00  0.00    +0.147 HD
ENDROOT
TORSDOF 0
