REMARK  Name = 
REMARK  9 active torsions:
REMARK  status: ('A' for Active; 'I' for Inactive)
REMARK    1  A    between atoms: C_2  and  C_3
REMARK    2  A    between atoms: C_3  and  C_4
REMARK    3  A    between atoms: C_3  and  N_13
REMARK    4  A    between atoms: C_3  and  C_15
REMARK    5  A    between atoms: C_4  and  C_5
REMARK    6  A    between atoms: C_7  and  O_8
REMARK    7  A    between atoms: C_9  and  O_10
REMARK    8  A    between atoms: N_13  and  N_14
REMARK    9  A    between atoms: C_15  and  O_16
REMARK                            x       y       z     vdW  Elec       q    Type
REMARK                         _______ _______ _______ _____ _____    ______ ____
ROOT
ATOM      1  O   HOH     1      -0.007   0.404   0.000  0.00  0.00    -0.410 OA
ATOM      2  H   HOH     0      -0.779  -0.216   0.000  0.00  0.00    +0.205 HD
ATOM      3  H   HOH     0       0.787  -0.188   0.000  0.00  0.00    +0.205 HD
ENDROOT
TORSDOF 0
REMARK  Name = 
REMARK  9 active torsions:
REMARK  status: ('A' for Active; 'I' for Inactive)
REMARK    1  A    between atoms: C_2  and  C_3
REMARK    2  A    between atoms: C_3  and  C_4
REMARK    3  A    between atoms: C_3  and  N_13
REMARK    4  A    between atoms: C_3  and  C_15
REMARK    5  A    between atoms: C_4  and  C_5
REMARK    6  A    between atoms: C_7  and  O_8
REMARK    7  A    between atoms: C_9  and  O_10
REMARK    8  A    between atoms: N_13  and  N_14
REMARK    9  A    between atoms: C_15  and  O_16
REMARK                            x       y       z     vdW  Elec       q    Type
REMARK                         _______ _______ _______ _____ _____    ______ ____
ROOT
ATOM      1  C   UNL     1       1.389  -0.758  -1.234  0.00  0.00    +0.041 C 
ATOM      2  C   UNL     1       1.670   0.271  -0.109  0.00  0.00    +0.131 C 
ENDROOT
BRANCH   2   3
ATOM      3  N   UNL     1       1.832  -0.400   1.210  0.00  0.00    -0.243 NA
ATOM      4  H   UNL     1       0.951  -0.906   1.462  0.00  0.00    +0.142 HD
BRANCH   3   5
ATOM      5  N   UNL     1       2.869  -1.364   1.221  0.00  0.00    -0.269 NA
ATOM      6  H   UNL     1       3.759  -0.952   0.862  0.00  0.00    +0.137 HD
ATOM      7  H   UNL     1       2.599  -2.189   0.638  0.00  0.00    +0.137 HD
ENDBRANCH   3   5
ENDBRANCH   2   3
BRANCH   2   8
ATOM      8  C   UNL     1       2.918   1.071  -0.440  0.00  0.00    +0.326 C 
ATOM      9  O   UNL     1       3.532   1.685   0.474  0.00  0.00    -0.249 OA
BRANCH   8  10
ATOM     10  O   UNL     1       3.351   1.198  -1.758  0.00  0.00    -0.479 OA
ATOM     11  H   UNL     1       4.167   1.752  -1.986  0.00  0.00    +0.295 HD
ENDBRANCH   8  10
ENDBRANCH   2   8
BRANCH   2  12
ATOM     12  C   UNL     1       0.505   1.302  -0.025  0.00  0.00    +0.069 C 
BRANCH  12  13
ATOM     13  C   UNL     1      -0.850   0.700   0.278  0.00  0.00    -0.041 A 
ATOM     14  C   UNL     1      -1.684   0.263  -0.765  0.00  0.00    +0.053 A 
ATOM     15  C   UNL     1      -2.940  -0.297  -0.486  0.00  0.00    +0.158 A 
ATOM     16  C   UNL     1      -3.370  -0.415   0.846  0.00  0.00    +0.158 A 
ATOM     17  C   UNL     1      -2.546   0.028   1.885  0.00  0.00    +0.049 A 
ATOM     18  C   UNL     1      -1.296   0.586   1.605  0.00  0.00    +0.007 A 
BRANCH  15  19
ATOM     19  O   UNL     1      -3.758  -0.734  -1.526  0.00  0.00    -0.503 OA
ATOM     20  H   UNL     1      -3.470  -0.660  -2.495  0.00  0.00    +0.292 HD
ENDBRANCH  15  19
BRANCH  16  21
ATOM     21  O   UNL     1      -4.612  -0.969   1.156  0.00  0.00    -0.503 OA
ATOM     22  H   UNL     1      -5.246  -1.304   0.441  0.00  0.00    +0.292 HD
ENDBRANCH  16  21
ENDBRANCH  12  13
ENDBRANCH   2  12
TORSDOF 8
