REMARK  Name = 
REMARK  9 active torsions:
REMARK  status: ('A' for Active; 'I' for Inactive)
REMARK    1  A    between atoms: C_3  and  C_4
REMARK    2  A    between atoms: C_3  and  C_5
REMARK    3  A    between atoms: CA_6  and  C_24
REMARK    4  A    between atoms: CA_10  and  N_11
REMARK    5  A    between atoms: C_12  and  C_14
REMARK    6  A    between atoms: C_14  and  C_15
REMARK    7  A    between atoms: C_14  and  C_18
REMARK    8  A    between atoms: C_15  and  O_16
REMARK    9  A    between atoms: C_24  and  O_25
REMARK                            x       y       z     vdW  Elec       q    Type
REMARK                         _______ _______ _______ _____ _____    ______ ____
ROOT
ATOM      1  N   UNL     1      -0.400  -0.281  -2.062  0.00  0.00    -0.301 N 
ATOM      2  C   UNL     1       1.032  -0.353  -2.017  0.00  0.00    +0.232 C 
ATOM      3  O   UNL     1       1.607  -1.476  -1.988  0.00  0.00    -0.275 OA
ATOM      4  H   UNL     1      -0.850   0.638  -2.274  0.00  0.00    +0.150 HD
ENDROOT
BRANCH   1  14
ATOM      5  C   UNL     1      -1.403  -1.879  -0.497  0.00  0.00    +0.165 C 
ATOM      6  S   UNL     1      -0.578  -0.920   0.829  0.00  0.00    -0.127 S 
ATOM      7  C   UNL     1      -2.143  -0.070   1.353  0.00  0.00    +0.042 C 
ATOM      8  C   UNL     1      -2.082   1.375   0.826  0.00  0.00    +0.025 C 
ATOM      9  C   UNL     1      -2.196  -0.029   2.895  0.00  0.00    +0.025 C 
ATOM     10  CA  UNL     1      -3.352  -0.813   0.697  0.00  0.00    +0.201 C 
ATOM     11  N   UNL     1      -2.775  -1.474  -0.447  0.00  0.00    -0.271 N 
ATOM     12  C   UNL     1      -2.694  -1.124  -1.884  0.00  0.00    +0.240 C 
ATOM     13  O   UNL     1      -3.497  -0.662  -2.735  0.00  0.00    -0.273 OA
ATOM     14  CA  UNL     1      -1.237  -1.468  -1.877  0.00  0.00    +0.190 C 
BRANCH  10  15
ATOM     15  C   UNL     1      -3.999  -1.846   1.581  0.00  0.00    +0.327 C 
ATOM     16  OXT UNL     1      -5.095  -1.588   2.149  0.00  0.00    -0.249 OA
BRANCH  15  17
ATOM     17  O   UNL     1      -3.371  -3.067   1.810  0.00  0.00    -0.479 OA
ATOM     18  H   UNL     1      -3.787  -3.756   2.426  0.00  0.00    +0.295 HD
ENDBRANCH  15  17
ENDBRANCH  10  15
ENDBRANCH   1  14
BRANCH   2  19
ATOM     19  C   UNL     1       1.851   0.915  -1.993  0.00  0.00    +0.213 C 
BRANCH  19  20
ATOM     20  C   UNL     1       2.770   0.927  -0.788  0.00  0.00    -0.025 A 
ATOM     21  C   UNL     1       2.398   1.643   0.366  0.00  0.00    +0.005 A 
ATOM     22  C   UNL     1       3.221   1.637   1.500  0.00  0.00    +0.000 A 
ATOM     23  C   UNL     1       4.413   0.911   1.497  0.00  0.00    +0.000 A 
ATOM     24  C   UNL     1       4.783   0.180   0.365  0.00  0.00    +0.000 A 
ATOM     25  C   UNL     1       3.964   0.179  -0.770  0.00  0.00    +0.005 A 
ENDBRANCH  19  20
BRANCH  19  26
ATOM     26  C   UNL     1       2.610   1.132  -3.278  0.00  0.00    +0.321 C 
ATOM     27  O   UNL     1       2.888   0.167  -4.043  0.00  0.00    -0.250 OA
BRANCH  26  28
ATOM     28  O   UNL     1       3.041   2.415  -3.604  0.00  0.00    -0.480 OA
ATOM     29  H   UNL     1       3.552   2.592  -4.464  0.00  0.00    +0.295 HD
ENDBRANCH  26  28
ENDBRANCH  19  26
ENDBRANCH   2  19
TORSDOF 7
