REMARK  Name = 
REMARK  23 active torsions:
REMARK  status: ('A' for Active; 'I' for Inactive)
REMARK    1  A    between atoms: C_1  and  C_66
REMARK    2  A    between atoms: C_5  and  C_6
REMARK    3  A    between atoms: C_6  and  C_7
REMARK    4  A    between atoms: C_10  and  O_11
REMARK    5  A    between atoms: O_11  and  C_12
REMARK    6  A    between atoms: C_23  and  C_44
REMARK    7  A    between atoms: C_27  and  C_28
REMARK    8  A    between atoms: C_28  and  C_29
REMARK    9  A    between atoms: C_35  and  C_36
REMARK   10  A    between atoms: C_36  and  C_37
REMARK   11  A    between atoms: C_37  and  C_38
REMARK   12  A    between atoms: C_50  and  C_51
REMARK   13  A    between atoms: N_53  and  C_54
REMARK   14  A    between atoms: C_54  and  C_55
REMARK   15  A    between atoms: C_54  and  C_59
REMARK   16  A    between atoms: C_55  and  C_56
REMARK   17  A    between atoms: C_56  and  C_57
REMARK   18  A    between atoms: C_56  and  C_58
REMARK   19  A    between atoms: N_61  and  C_62
REMARK   20  A    between atoms: C_62  and  C_63
REMARK   21  A    between atoms: C_66  and  C_67
REMARK   22  A    between atoms: C_66  and  C_68
REMARK   23  A    between atoms: C_68  and  C_69
REMARK                            x       y       z     vdW  Elec       q    Type
REMARK                         _______ _______ _______ _____ _____    ______ ____
ROOT
ATOM      1  C   UNL     1      -6.336  -1.961   1.430  0.00  0.00    +0.162 C 
ATOM      2  N   UNL     1      -5.606  -0.712   1.162  0.00  0.00    -0.302 N 
ATOM      3  C   UNL     1      -6.250   0.572   1.297  0.00  0.00    +0.234 C 
ATOM      4  O   UNL     1      -7.327   0.660   1.952  0.00  0.00    -0.274 OA
ATOM      5  C   UNL     1      -5.714   1.838   0.651  0.00  0.00    +0.163 C 
ATOM      6  N   UNL     1      -4.348   1.670   0.135  0.00  0.00    -0.304 N 
ATOM      7  C   UNL     1      -3.338   2.676   0.315  0.00  0.00    +0.214 C 
ATOM      8  O   UNL     1      -3.631   3.789   0.837  0.00  0.00    -0.276 OA
ATOM      9  C   UNL     1      -1.940   2.424  -0.180  0.00  0.00    +0.096 C 
ATOM     10  C   UNL     1      -0.860   3.074   0.708  0.00  0.00    +0.020 C 
ATOM     11  C   UNL     1      -0.896   2.612   2.174  0.00  0.00    +0.069 C 
ATOM     12  S   UNL     1      -0.676   0.801   2.340  0.00  0.00    -0.158 S 
ATOM     13  C   UNL     1       1.138   0.750   2.061  0.00  0.00    +0.100 C 
ATOM     14  C   UNL     1       1.476  -0.098   0.819  0.00  0.00    +0.169 C 
ATOM     15  N   UNL     1       0.782  -1.391   0.837  0.00  0.00    -0.302 N 
ATOM     16  C   UNL     1       0.986  -2.400   1.839  0.00  0.00    +0.234 C 
ATOM     17  O   UNL     1       1.734  -2.175   2.827  0.00  0.00    -0.274 OA
ATOM     18  C   UNL     1       0.360  -3.767   1.694  0.00  0.00    +0.168 C 
ATOM     19  N   UNL     1      -1.096  -3.644   1.553  0.00  0.00    -0.302 N 
ATOM     20  C   UNL     1      -2.015  -4.255   2.473  0.00  0.00    +0.234 C 
ATOM     21  O   UNL     1      -1.621  -4.554   3.627  0.00  0.00    -0.274 OA
ATOM     22  C   UNL     1      -3.444  -4.553   2.095  0.00  0.00    +0.159 C 
ATOM     23  N   UNL     1      -4.148  -3.348   1.632  0.00  0.00    -0.302 N 
ATOM     24  C   UNL     1      -5.464  -3.001   2.114  0.00  0.00    +0.234 C 
ATOM     25  O   UNL     1      -5.945  -3.606   3.112  0.00  0.00    -0.274 OA
ATOM     26  H   UNL     1      -4.650  -0.772   0.748  0.00  0.00    +0.150 HD
ATOM     27  H   UNL     1      -4.168   0.923  -0.575  0.00  0.00    +0.149 HD
ATOM     28  H   UNL     1       0.109  -1.582   0.064  0.00  0.00    +0.150 HD
ATOM     29  H   UNL     1      -1.472  -3.188   0.699  0.00  0.00    +0.150 HD
ATOM     30  H   UNL     1      -3.747  -2.805   0.838  0.00  0.00    +0.150 HD
ENDROOT
BRANCH  14  31
ATOM     31  C   UNL     1       2.963  -0.309   0.649  0.00  0.00    +0.237 C 
ATOM     32  O   UNL     1       3.721  -0.290   1.654  0.00  0.00    -0.274 OA
ATOM     33  N   UNL     1       3.520  -0.611  -0.647  0.00  0.00    -0.288 N 
ATOM     34  C   UNL     1       2.767  -1.198  -1.738  0.00  0.00    +0.109 C 
ATOM     35  C   UNL     1       3.798  -1.645  -2.767  0.00  0.00    +0.021 C 
ATOM     36  C   UNL     1       5.112  -0.961  -2.390  0.00  0.00    +0.033 C 
ATOM     37  C   UNL     1       4.933  -0.447  -0.957  0.00  0.00    +0.162 C 
BRANCH  37  38
ATOM     38  C   UNL     1       5.332   1.002  -0.838  0.00  0.00    +0.234 C 
ATOM     39  O   UNL     1       4.698   1.879  -1.494  0.00  0.00    -0.274 OA
ATOM     40  N   UNL     1       6.425   1.384   0.009  0.00  0.00    -0.302 N 
ATOM     41  H   UNL     1       6.848   0.650   0.624  0.00  0.00    +0.150 HD
BRANCH  40  42
ATOM     42  C   UNL     1       7.104   2.682  -0.102  0.00  0.00    +0.159 C 
BRANCH  42  43
ATOM     43  C   UNL     1       8.225   2.588  -1.107  0.00  0.00    +0.234 C 
ATOM     44  O   UNL     1       8.492   3.594  -1.825  0.00  0.00    -0.274 OA
ATOM     45  N   UNL     1       8.986   1.382  -1.268  0.00  0.00    -0.305 N 
ATOM     46  H   UNL     1       8.547   0.466  -1.011  0.00  0.00    +0.149 HD
BRANCH  45  47
ATOM     47  C   UNL     1      10.357   1.410  -1.786  0.00  0.00    +0.199 C 
BRANCH  47  48
ATOM     48  C   UNL     1      10.867   0.022  -2.040  0.00  0.00    +0.228 C 
ATOM     49  N   UNL     1      10.826  -0.973  -1.014  0.00  0.00    -0.328 N 
ATOM     50  O   UNL     1      11.343  -0.268  -3.172  0.00  0.00    -0.274 OA
ATOM     51  H   UNL     1      10.488  -0.735  -0.051  0.00  0.00    +0.145 HD
ATOM     52  H   UNL     1      11.168  -1.939  -1.203  0.00  0.00    +0.145 HD
ENDBRANCH  47  48
ENDBRANCH  45  47
ENDBRANCH  42  43
BRANCH  42  53
ATOM     53  C   UNL     1       7.604   3.115   1.300  0.00  0.00    +0.034 C 
BRANCH  53  54
ATOM     54  C   UNL     1       8.056   4.593   1.479  0.00  0.00    -0.015 C 
ATOM     55  C   UNL     1       7.132   5.609   0.798  0.00  0.00    +0.007 C 
ATOM     56  C   UNL     1       9.524   4.824   1.092  0.00  0.00    +0.007 C 
ENDBRANCH  53  54
ENDBRANCH  42  53
ENDBRANCH  40  42
ENDBRANCH  37  38
ENDBRANCH  14  31
BRANCH   1  57
ATOM     57  C   UNL     1      -7.043  -2.479   0.145  0.00  0.00    +0.015 C 
ATOM     58  C   UNL     1      -6.049  -2.974  -0.923  0.00  0.00    +0.010 C 
BRANCH  57  59
ATOM     59  C   UNL     1      -8.082  -3.573   0.492  0.00  0.00    +0.002 C 
ATOM     60  C   UNL     1      -8.993  -3.922  -0.683  0.00  0.00    +0.004 C 
ENDBRANCH  57  59
ENDBRANCH   1  57
BRANCH   5  61
ATOM     61  C   UNL     1      -6.660   2.306  -0.477  0.00  0.00    +0.067 C 
BRANCH  61  62
ATOM     62  C   UNL     1      -6.327   3.715  -0.904  0.00  0.00    -0.045 A 
ATOM     63  C   UNL     1      -5.547   3.951  -2.046  0.00  0.00    +0.007 A 
ATOM     64  C   UNL     1      -5.186   5.255  -2.391  0.00  0.00    +0.046 A 
ATOM     65  C   UNL     1      -5.593   6.337  -1.603  0.00  0.00    +0.120 A 
ATOM     66  C   UNL     1      -6.387   6.103  -0.467  0.00  0.00    +0.046 A 
ATOM     67  C   UNL     1      -6.753   4.802  -0.124  0.00  0.00    +0.007 A 
BRANCH  65  68
ATOM     68  O   UNL     1      -5.190   7.626  -1.980  0.00  0.00    -0.495 OA
ATOM     69  C   UNL     1      -5.459   8.808  -1.232  0.00  0.00    +0.277 C 
ENDBRANCH  65  68
ENDBRANCH  61  62
ENDBRANCH   5  61
BRANCH  18  70
ATOM     70  C   UNL     1       0.939  -4.524   0.480  0.00  0.00    +0.127 C 
BRANCH  70  71
ATOM     71  C   UNL     1       2.435  -4.674   0.534  0.00  0.00    +0.213 C 
ATOM     72  N   UNL     1       3.183  -4.709  -0.685  0.00  0.00    -0.329 N 
ATOM     73  O   UNL     1       3.032  -4.806   1.638  0.00  0.00    -0.276 OA
ATOM     74  H   UNL     1       4.213  -4.743  -0.630  0.00  0.00    +0.145 HD
ATOM     75  H   UNL     1       4.235  -4.759  -0.714  0.00  0.00    +0.145 HD
ENDBRANCH  70  71
ENDBRANCH  18  70
BRANCH  22  76
ATOM     76  C   UNL     1      -3.578  -5.715   1.084  0.00  0.00    +0.041 C 
BRANCH  76  77
ATOM     77  C   UNL     1      -2.965  -5.449  -0.304  0.00  0.00    +0.098 C 
BRANCH  77  78
ATOM     78  C   UNL     1      -3.287  -6.565  -1.258  0.00  0.00    +0.211 C 
ATOM     79  N   UNL     1      -2.231  -7.239  -1.944  0.00  0.00    -0.329 N 
ATOM     80  O   UNL     1      -4.487  -6.900  -1.461  0.00  0.00    -0.276 OA
ATOM     81  H   UNL     1      -2.430  -8.018  -2.611  0.00  0.00    +0.145 HD
ATOM     82  H   UNL     1      -2.437  -8.019  -2.611  0.00  0.00    +0.145 HD
ENDBRANCH  77  78
ENDBRANCH  76  77
ENDBRANCH  22  76
TORSDOF 18
