REMARK  Name = 
REMARK  4 active torsions:
REMARK  status: ('A' for Active; 'I' for Inactive)
REMARK    1  A    between atoms: C_1  and  C_2
REMARK    2  A    between atoms: C_2  and  O_3
REMARK    3  A    between atoms: O_3  and  C_4
REMARK    4  A    between atoms: N_9  and  C_10
REMARK                            x       y       z     vdW  Elec       q    Type
REMARK                         _______ _______ _______ _____ _____    ______ ____
ROOT
ATOM      1  C   UNL     1      -0.875  -0.454   0.336  0.00  0.00    +0.421 C 
ATOM      2  O   UNL     1      -1.151  -1.684   0.315  0.00  0.00    -0.223 OA
ATOM      3  N   UNL     1       0.486  -0.008   0.200  0.00  0.00    -0.231 N 
ATOM      4  C   UNL     1       0.885   1.281   0.217  0.00  0.00    +0.117 A 
ATOM      5  C   UNL     1       2.255   1.325   0.055  0.00  0.00    +0.106 A 
ATOM      6  N   UNL     1       2.710   0.063  -0.061  0.00  0.00    -0.329 N 
ATOM      7  C   UNL     1       4.099  -0.341  -0.262  0.00  0.00    +0.151 C 
ATOM      8  C   UNL     1       1.621  -0.732   0.027  0.00  0.00    +0.169 A 
ATOM      9  S   UNL     1       1.684  -2.372  -0.074  0.00  0.00    -0.012 S 
ENDROOT
BRANCH   1  10
ATOM     10  O   UNL     1      -1.895   0.492   0.501  0.00  0.00    -0.448 OA
BRANCH  10  12
ATOM     11  C   UNL     1      -3.835  -0.202  -0.782  0.00  0.00    +0.048 C 
ATOM     12  C   UNL     1      -3.277   0.152   0.592  0.00  0.00    +0.230 C 
ENDBRANCH  10  12
ENDBRANCH   1  10
TORSDOF 2
