REMARK  Name = 
REMARK  7 active torsions:
REMARK  status: ('A' for Active; 'I' for Inactive)
REMARK    1  A    between atoms: C_2  and  N_3
REMARK    2  A    between atoms: N_3  and  C_4
REMARK    3  A    between atoms: N_3  and  C_5
REMARK    4  A    between atoms: N_3  and  C_6
REMARK    5  A    between atoms: C_6  and  C_7
REMARK    6  A    between atoms: C_7  and  O_8
REMARK    7  A    between atoms: O_8  and  C_9
REMARK                            x       y       z     vdW  Elec       q    Type
REMARK                         _______ _______ _______ _____ _____    ______ ____
ROOT
ATOM      1 CL   UNL     1       0.000   0.000   0.000  0.00  0.00    +0.000 Cl
ENDROOT
TORSDOF 0
REMARK  Name = 
REMARK  7 active torsions:
REMARK  status: ('A' for Active; 'I' for Inactive)
REMARK    1  A    between atoms: C_2  and  N_3
REMARK    2  A    between atoms: N_3  and  C_4
REMARK    3  A    between atoms: N_3  and  C_5
REMARK    4  A    between atoms: N_3  and  C_6
REMARK    5  A    between atoms: C_6  and  C_7
REMARK    6  A    between atoms: C_7  and  O_8
REMARK    7  A    between atoms: O_8  and  C_9
REMARK                            x       y       z     vdW  Elec       q    Type
REMARK                         _______ _______ _______ _____ _____    ______ ____
ROOT
ATOM      1  C   UNL     1       0.739   0.695  -0.796  0.00  0.00    +0.216 C 
ENDROOT
BRANCH   1   2
ATOM      2  C   UNL     1       0.085   0.039   0.440  0.00  0.00    -0.034 C 
BRANCH   2   4
ATOM      3  C   UNL     1      -1.601  -1.261  -0.789  0.00  0.00    -0.093 C 
ATOM      4  N   UNL     1      -1.369  -0.280   0.298  0.00  0.00    +0.377 N 
ATOM      5  C   UNL     1      -1.831  -0.881   1.573  0.00  0.00    -0.093 C 
ATOM      6  C   UNL     1      -2.169   0.943   0.044  0.00  0.00    -0.093 C 
ENDBRANCH   2   4
ENDBRANCH   1   2
BRANCH   1   7
ATOM      7  O   UNL     1       2.118   0.958  -0.540  0.00  0.00    -0.452 OA
BRANCH   7   8
ATOM      8  C   UNL     1       3.108  -0.030  -0.561  0.00  0.00    +0.398 C 
ATOM      9  N   UNL     1       4.454   0.319  -0.246  0.00  0.00    -0.295 N 
ATOM     10  O   UNL     1       2.826  -1.221  -0.862  0.00  0.00    -0.227 OA
ATOM     11  H   UNL     1       4.696   1.304   0.002  0.00  0.00    +0.148 HD
ATOM     12  H   UNL     1       5.206  -0.405  -0.259  0.00  0.00    +0.148 HD
ENDBRANCH   7   8
ENDBRANCH   1   7
TORSDOF 4
