REMARK  Name = 
REMARK  0 active torsions:
REMARK  status: ('A' for Active; 'I' for Inactive)
REMARK                            x       y       z     vdW  Elec       q    Type
REMARK                         _______ _______ _______ _____ _____    ______ ____
ROOT
ATOM      1  N   UNL     1       1.092  -0.007  -0.039  0.00  0.00    +0.000 NA
ATOM      2  H   UNL     1       0.752  -0.285   0.882  0.00  0.00    +0.000 HD
ATOM      3  H   UNL     1       0.752   0.929  -0.258  0.00  0.00    +0.000 HD
ATOM      4  H   UNL     1       2.112  -0.007  -0.039  0.00  0.00    +0.000 HD
ENDROOT
TORSDOF 0
REMARK  Name = 
REMARK  0 active torsions:
REMARK  status: ('A' for Active; 'I' for Inactive)
REMARK                            x       y       z     vdW  Elec       q    Type
REMARK                         _______ _______ _______ _____ _____    ______ ____
ROOT
ATOM      1  N   UNL     1       0.901  -0.016   0.005  0.00  0.00    +0.000 NA
ATOM      2  H   UNL     1       0.561   0.869  -0.370  0.00  0.00    +0.000 HD
ATOM      3  H   UNL     1       0.561  -0.784  -0.574  0.00  0.00    +0.000 HD
ATOM      4  H   UNL     1       1.921  -0.016   0.005  0.00  0.00    +0.000 HD
ENDROOT
TORSDOF 0
REMARK  Name = 
REMARK  0 active torsions:
REMARK  status: ('A' for Active; 'I' for Inactive)
REMARK                            x       y       z     vdW  Elec       q    Type
REMARK                         _______ _______ _______ _____ _____    ______ ____
ROOT
ATOM      1  O   UNL     1       1.061   0.044   0.067  0.00  0.00    +0.000 OA
ATOM      2  C   UNL     1       2.332   0.044   0.067  0.00  0.00    +0.000 C 
ATOM      3  O   UNL     1       3.220   1.238  -0.292  0.00  0.00    +0.000 OA
ATOM      4 PT   UNL     1       4.090   1.617   0.906  0.00  0.00    +0.000 Pt
ATOM      5  O   UNL     1       5.069   0.479   1.215  0.00  0.00    +0.000 OA
ATOM      6  C   UNL     1       4.271  -0.788   1.443  0.00  0.00    +0.000 C 
ATOM      7  O   UNL     1       4.482  -1.524   2.458  0.00  0.00    +0.000 OA
ATOM      8  C   UNL     1       3.217  -1.148   0.425  0.00  0.00    +0.000 C 
ATOM      9  C   UNL     1       2.436  -2.420   0.770  0.00  0.00    +0.000 C 
ATOM     10  C   UNL     1       3.513  -3.194  -0.010  0.00  0.00    +0.000 C 
ATOM     11  C   UNL     1       3.771  -1.896  -0.793  0.00  0.00    +0.000 C 
ENDROOT
TORSDOF 0
