REMARK  Name = 
REMARK  25 active torsions:
REMARK  status: ('A' for Active; 'I' for Inactive)
REMARK    1  A    between atoms: C_1  and  C_2
REMARK    2  A    between atoms: C_2  and  C_3
REMARK    3  A    between atoms: C_2  and  C_4
REMARK    4  A    between atoms: C_4  and  C_5
REMARK    5  A    between atoms: C_5  and  N_6
REMARK    6  A    between atoms: C_5  and  C_28
REMARK    7  A    between atoms: C_7  and  C_9
REMARK    8  A    between atoms: C_9  and  C_10
REMARK    9  A    between atoms: C_9  and  N_18
REMARK   10  A    between atoms: C_10  and  C_11
REMARK   11  A    between atoms: C_11  and  C_12
REMARK   12  A    between atoms: C_19  and  C_21
REMARK   13  A    between atoms: C_21  and  N_22
REMARK   14  A    between atoms: N_30  and  C_31
REMARK   15  A    between atoms: C_31  and  C_32
REMARK   16  A    between atoms: C_31  and  C_39
REMARK   17  A    between atoms: C_32  and  C_33
REMARK   18  A    between atoms: N_41  and  C_42
REMARK   19  A    between atoms: C_42  and  C_43
REMARK   20  A    between atoms: C_42  and  C_47
REMARK   21  A    between atoms: C_43  and  C_44
REMARK   22  A    between atoms: C_44  and  C_45
REMARK   23  A    between atoms: C_44  and  C_46
REMARK   24  A    between atoms: C_47  and  C_49
REMARK   25  A    between atoms: C_49  and  C_50
REMARK                            x       y       z     vdW  Elec       q    Type
REMARK                         _______ _______ _______ _____ _____    ______ ____
ROOT
ATOM      1  C   UNL     1       0.937   0.756  -2.993  0.00  0.00    +0.159 C 
ENDROOT
BRANCH   1   2
ATOM      2  N   UNL     1       1.610   0.209  -1.817  0.00  0.00    -0.302 N 
ATOM      3  C   UNL     1       2.322   1.006  -0.858  0.00  0.00    +0.234 C 
ATOM      4  O   UNL     1       2.407   2.257  -1.004  0.00  0.00    -0.274 OA
ATOM      5  H   UNL     1       1.561  -0.817  -1.648  0.00  0.00    +0.150 HD
BRANCH   3   6
ATOM      6  C   UNL     1       2.992   0.329   0.314  0.00  0.00    +0.159 C 
BRANCH   6   7
ATOM      7  N   UNL     1       3.755   1.294   1.115  0.00  0.00    -0.303 N 
ATOM      8  C   UNL     1       5.054   0.994   1.660  0.00  0.00    +0.228 C 
ATOM      9  O   UNL     1       5.692  -0.018   1.264  0.00  0.00    -0.274 OA
ATOM     10  H   UNL     1       3.256   2.142   1.467  0.00  0.00    +0.149 HD
BRANCH   8  11
ATOM     11  C   UNL     1       5.642   1.847   2.747  0.00  0.00    +0.180 C 
BRANCH  11  12
ATOM     12  N   UNL     1       5.305   3.272   2.542  0.00  0.00    -0.290 NA
ATOM     13  C   UNL     1       6.110   3.894   1.460  0.00  0.00    +0.113 C 
ATOM     14  C   UNL     1       7.358   4.620   1.996  0.00  0.00    +0.175 C 
ATOM     15  O   UNL     1       7.810   4.012   3.188  0.00  0.00    -0.377 OA
ATOM     16  C   UNL     1       6.875   4.238   4.233  0.00  0.00    +0.175 C 
ATOM     17  C   UNL     1       5.405   4.043   3.796  0.00  0.00    +0.113 C 
ENDBRANCH  11  12
ENDBRANCH   8  11
ENDBRANCH   6   7
BRANCH   6  18
ATOM     18  C   UNL     1       1.949  -0.387   1.212  0.00  0.00    +0.036 C 
BRANCH  18  19
ATOM     19  C   UNL     1       2.403  -1.785   1.653  0.00  0.00    +0.037 C 
BRANCH  19  20
ATOM     20  C   UNL     1       2.430  -2.754   0.497  0.00  0.00    -0.047 A 
ATOM     21  C   UNL     1       1.231  -3.183  -0.094  0.00  0.00    +0.003 A 
ATOM     22  C   UNL     1       1.259  -4.041  -1.196  0.00  0.00    +0.000 A 
ATOM     23  C   UNL     1       2.481  -4.490  -1.706  0.00  0.00    +0.000 A 
ATOM     24  C   UNL     1       3.676  -4.086  -1.109  0.00  0.00    +0.000 A 
ATOM     25  C   UNL     1       3.656  -3.213  -0.019  0.00  0.00    +0.003 A 
ENDBRANCH  19  20
ENDBRANCH  18  19
ENDBRANCH   6  18
ENDBRANCH   3   6
ENDBRANCH   1   2
BRANCH   1  26
ATOM     26  C   UNL     1      -0.502   0.284  -3.092  0.00  0.00    +0.234 C 
ATOM     27  O   UNL     1      -1.173   0.573  -4.121  0.00  0.00    -0.274 OA
ATOM     28  N   UNL     1      -1.129  -0.423  -2.004  0.00  0.00    -0.302 N 
ATOM     29  H   UNL     1      -0.632  -0.497  -1.087  0.00  0.00    +0.150 HD
BRANCH  28  30
ATOM     30  C   UNL     1      -2.489  -0.962  -2.069  0.00  0.00    +0.163 C 
BRANCH  30  31
ATOM     31  C   UNL     1      -3.434  -0.045  -1.338  0.00  0.00    +0.234 C 
ATOM     32  O   UNL     1      -4.505   0.322  -1.903  0.00  0.00    -0.274 OA
ATOM     33  N   UNL     1      -3.166   0.344   0.017  0.00  0.00    -0.304 N 
ATOM     34  H   UNL     1      -2.248   0.079   0.441  0.00  0.00    +0.149 HD
BRANCH  33  35
ATOM     35  C   UNL     1      -4.154   1.055   0.837  0.00  0.00    +0.143 C 
BRANCH  35  36
ATOM     36  C   UNL     1      -4.291   2.486   0.364  0.00  0.00    +0.187 C 
ATOM     37  O   UNL     1      -3.350   3.036  -0.184  0.00  0.00    -0.292 OA
BRANCH  36  38
ATOM     38  C   UNL     1      -5.551   3.280   0.597  0.00  0.00    +0.149 C 
ATOM     39  C   UNL     1      -5.532   4.485   1.536  0.00  0.00    +0.052 C 
ATOM     40  C   UNL     1      -6.593   3.219  -0.459  0.00  0.00    +0.203 C 
ATOM     41  O   UNL     1      -6.705   2.489   0.751  0.00  0.00    -0.361 OA
ENDBRANCH  36  38
ENDBRANCH  35  36
BRANCH  35  42
ATOM     42  C   UNL     1      -3.743   1.034   2.326  0.00  0.00    +0.033 C 
BRANCH  42  43
ATOM     43  C   UNL     1      -3.731  -0.392   2.940  0.00  0.00    -0.015 C 
ATOM     44  C   UNL     1      -5.156  -0.905   3.204  0.00  0.00    +0.007 C 
ATOM     45  C   UNL     1      -2.928  -0.397   4.248  0.00  0.00    +0.007 C 
ENDBRANCH  42  43
ENDBRANCH  35  42
ENDBRANCH  33  35
ENDBRANCH  30  31
BRANCH  30  46
ATOM     46  C   UNL     1      -2.504  -2.375  -1.456  0.00  0.00    +0.067 C 
BRANCH  46  47
ATOM     47  C   UNL     1      -3.854  -3.037  -1.572  0.00  0.00    -0.045 A 
ATOM     48  C   UNL     1      -4.180  -3.798  -2.705  0.00  0.00    +0.004 A 
ATOM     49  C   UNL     1      -5.435  -4.405  -2.809  0.00  0.00    +0.000 A 
ATOM     50  C   UNL     1      -6.374  -4.254  -1.780  0.00  0.00    +0.000 A 
ATOM     51  C   UNL     1      -6.063  -3.491  -0.653  0.00  0.00    +0.000 A 
ATOM     52  C   UNL     1      -4.808  -2.882  -0.547  0.00  0.00    +0.004 A 
ENDBRANCH  46  47
ENDBRANCH  30  46
ENDBRANCH  28  30
ENDBRANCH   1  26
BRANCH   1  53
ATOM     53  C   UNL     1       1.754   0.470  -4.278  0.00  0.00    +0.034 C 
BRANCH  53  55
ATOM     54  C   UNL     1       1.065  -2.028  -4.470  0.00  0.00    +0.007 C 
ATOM     55  C   UNL     1       2.194  -0.996  -4.576  0.00  0.00    -0.015 C 
ATOM     56  C   UNL     1       3.437  -1.448  -3.790  0.00  0.00    +0.007 C 
ENDBRANCH  53  55
ENDBRANCH   1  53
TORSDOF 20
