REMARK  Name = 
REMARK  7 active torsions:
REMARK  status: ('A' for Active; 'I' for Inactive)
REMARK    1  A    between atoms: N_4  and  CA_5
REMARK    2  A    between atoms: CA_5  and  CB_6
REMARK    3  A    between atoms: CA_5  and  C_11
REMARK    4  A    between atoms: CB_6  and  CG_7
REMARK    5  A    between atoms: CG_7  and  CD_8
REMARK    6  A    between atoms: CD_8  and  OE1_9
REMARK    7  A    between atoms: C_11  and  O_12
REMARK                            x       y       z     vdW  Elec       q    Type
REMARK                         _______ _______ _______ _____ _____    ______ ____
ROOT
ATOM      1  CA  GLU A   1      -0.096  -0.388  -0.860  0.00  0.00    +0.183 C 
ENDROOT
BRANCH   1   5
ATOM      2  N   UNK A   0      -3.670   0.040   0.463  0.00  0.00    -0.313 N 
ATOM      3  C   UNK A   0      -2.582  -0.070  -0.453  0.00  0.00    +0.298 C 
ATOM      4  O   UNK A   0      -2.805  -0.020  -1.693  0.00  0.00    -0.253 OA
ATOM      5  N   GLU A   1      -1.245  -0.235   0.038  0.00  0.00    -0.286 N 
ATOM      6  H   UNK A   0      -4.646   0.160   0.111  0.00  0.00    +0.146 HD
ATOM      7  H   UNK A   0      -3.504   0.002   1.493  0.00  0.00    +0.146 HD
ATOM      8  H   GLU A   1      -1.104  -0.313   1.071  0.00  0.00    +0.151 HD
ENDBRANCH   1   5
BRANCH   1   9
ATOM      9  C   GLU A   1      -0.055  -1.794  -1.384  0.00  0.00    +0.325 C 
ATOM     10  OXT GLU A   1       0.089  -2.004  -2.619  0.00  0.00    -0.249 OA
BRANCH   9  11
ATOM     11  O   GLU A   1      -0.150  -2.868  -0.504  0.00  0.00    -0.479 OA
ATOM     12  H   GLU A   1      -0.115  -3.822  -0.844  0.00  0.00    +0.295 HD
ENDBRANCH   9  11
ENDBRANCH   1   9
BRANCH   1  13
ATOM     13  CB  GLU A   1       1.222  -0.066  -0.131  0.00  0.00    +0.045 C 
BRANCH  13  14
ATOM     14  CG  GLU A   1       1.299   1.410   0.281  0.00  0.00    +0.123 C 
BRANCH  14  15
ATOM     15  CD  GLU A   1       2.597   1.693   0.968  0.00  0.00    +0.305 C 
ATOM     16  OE2 GLU A   1       3.598   2.065   0.300  0.00  0.00    -0.251 OA
BRANCH  15  17
ATOM     17  OE1 GLU A   1       2.709   1.503   2.342  0.00  0.00    -0.481 OA
ATOM     18  HE1 GLU A   1       3.586   1.674   2.820  0.00  0.00    +0.295 HD
ENDBRANCH  15  17
ENDBRANCH  14  15
ENDBRANCH  13  14
ENDBRANCH   1  13
TORSDOF 7
