REMARK  Name = 
REMARK  13 active torsions:
REMARK  status: ('A' for Active; 'I' for Inactive)
REMARK    1  A    between atoms: C_1  and  C_2
REMARK    2  A    between atoms: C_2  and  C_3
REMARK    3  A    between atoms: C_3  and  C_4
REMARK    4  A    between atoms: C_4  and  C_5
REMARK    5  A    between atoms: C_4  and  C_6
REMARK    6  A    between atoms: C_4  and  C_11
REMARK    7  A    between atoms: C_6  and  O_7
REMARK    8  A    between atoms: O_7  and  C_8
REMARK    9  A    between atoms: C_11  and  O_12
REMARK   10  A    between atoms: O_12  and  C_13
REMARK   11  A    between atoms: N_15  and  C_16
REMARK   12  A    between atoms: C_16  and  C_17
REMARK   13  A    between atoms: C_16  and  C_18
REMARK                            x       y       z     vdW  Elec       q    Type
REMARK                         _______ _______ _______ _____ _____    ______ ____
ROOT
ATOM      1  C   UNL     1      -1.300  -1.352  -0.641  0.00  0.00    +0.036 C 
ATOM      2  C   UNL     1      -1.688  -2.259  -1.834  0.00  0.00    +0.018 C 
ENDROOT
BRANCH   1   3
ATOM      3  C   UNL     1      -1.084  -2.206   0.651  0.00  0.00    +0.013 C 
BRANCH   3   5
ATOM      4  C   UNL     1       0.154  -4.050   1.865  0.00  0.00    +0.004 C 
ATOM      5  C   UNL     1      -0.026  -3.325   0.533  0.00  0.00    -0.003 C 
ENDBRANCH   3   5
ENDBRANCH   1   3
BRANCH   1   6
ATOM      6  C   UNL     1      -2.476  -0.375  -0.370  0.00  0.00    +0.243 C 
BRANCH   6   7
ATOM      7  O   UNL     1      -2.645   0.539  -1.458  0.00  0.00    -0.450 OA
BRANCH   7   8
ATOM      8  C   UNL     1      -3.894   1.005  -1.890  0.00  0.00    +0.398 C 
ATOM      9  N   UNL     1      -3.954   2.023  -2.888  0.00  0.00    -0.295 N 
ATOM     10  O   UNL     1      -4.968   0.517  -1.430  0.00  0.00    -0.227 OA
ATOM     11  H   UNL     1      -3.077   2.507  -3.196  0.00  0.00    +0.148 HD
ATOM     12  H   UNL     1      -4.840   2.189  -3.416  0.00  0.00    +0.148 HD
ENDBRANCH   7   8
ENDBRANCH   6   7
ENDBRANCH   1   6
BRANCH   1  13
ATOM     13  C   UNL     1      -0.021  -0.553  -1.009  0.00  0.00    +0.243 C 
BRANCH  13  14
ATOM     14  O   UNL     1       0.401   0.274   0.074  0.00  0.00    -0.450 OA
BRANCH  14  15
ATOM     15  C   UNL     1       1.586   1.022   0.031  0.00  0.00    +0.400 C 
ATOM     16  O   UNL     1       2.357   0.944  -0.971  0.00  0.00    -0.226 OA
ATOM     17  N   UNL     1       1.929   1.862   1.141  0.00  0.00    -0.279 N 
ATOM     18  H   UNL     1       1.246   1.935   1.931  0.00  0.00    +0.152 HD
BRANCH  17  19
ATOM     19  C   UNL     1       3.217   2.555   1.228  0.00  0.00    +0.070 C 
ATOM     20  C   UNL     1       3.201   3.811   0.352  0.00  0.00    +0.027 C 
ATOM     21  C   UNL     1       3.525   2.920   2.683  0.00  0.00    +0.027 C 
ENDBRANCH  17  19
ENDBRANCH  14  15
ENDBRANCH  13  14
ENDBRANCH   1  13
TORSDOF 9
