REMARK  Name = 
REMARK  5 active torsions:
REMARK  status: ('A' for Active; 'I' for Inactive)
REMARK    1  A    between atoms: C_2  and  C_3
REMARK    2  A    between atoms: C_3  and  N_4
REMARK    3  A    between atoms: N_7  and  C_8
REMARK    4  A    between atoms: N_7  and  N_11
REMARK    5  A    between atoms: C_8  and  C_9
REMARK                            x       y       z     vdW  Elec       q    Type
REMARK                         _______ _______ _______ _____ _____    ______ ____
ROOT
ATOM      1  N   UNL     1       1.076  -0.654  -0.677  0.00  0.00    -0.297 N 
ATOM      2  C   UNL     1      -0.142  -0.846   0.059  0.00  0.00    +0.324 C 
ATOM      3  O   UNL     1      -0.099  -1.090   1.296  0.00  0.00    -0.251 OA
ATOM      4  N   UNL     1      -1.418  -0.708  -0.594  0.00  0.00    -0.140 N 
ATOM      5  H   UNL     1       1.024  -0.279  -1.650  0.00  0.00    +0.150 HD
ENDROOT
BRANCH   4   6
ATOM      6  N   UNL     1      -1.611  -1.117  -1.926  0.00  0.00    +0.053 NA
ATOM      7  O   UNL     1      -0.771  -1.822  -2.524  0.00  0.00    -0.126 OA
ENDBRANCH   4   6
BRANCH   1   8
ATOM      8  C   UNL     1       2.401  -0.763  -0.065  0.00  0.00    +0.121 C 
BRANCH   8  10
ATOM      9 CL   UNL     1       2.041   1.499   1.432  0.00  0.00    -0.124 Cl
ATOM     10  C   UNL     1       2.986   0.623   0.198  0.00  0.00    +0.127 C 
ENDBRANCH   8  10
ENDBRANCH   1   8
BRANCH   4  11
ATOM     11  C   UNL     1      -2.546  -0.105   0.120  0.00  0.00    +0.155 C 
BRANCH  11  12
ATOM     12  C   UNL     1      -2.352   1.403   0.274  0.00  0.00    +0.130 C 
ATOM     13 CL   UNL     1      -2.311   2.208  -1.317  0.00  0.00    -0.124 Cl
ENDBRANCH  11  12
ENDBRANCH   4  11
TORSDOF 5
