REMARK  Name = 
REMARK  9 active torsions:
REMARK  status: ('A' for Active; 'I' for Inactive)
REMARK    1  A    between atoms: C_1  and  C_2
REMARK    2  A    between atoms: C_2  and  C_3
REMARK    3  A    between atoms: C_3  and  C_5
REMARK    4  A    between atoms: N_16  and  C_17
REMARK    5  A    between atoms: C_17  and  C_18
REMARK    6  A    between atoms: C_18  and  N_19
REMARK    7  A    between atoms: N_22  and  C_23
REMARK    8  A    between atoms: C_23  and  C_24
REMARK    9  A    between atoms: C_24  and  O_25
REMARK                            x       y       z     vdW  Elec       q    Type
REMARK                         _______ _______ _______ _____ _____    ______ ____
ROOT
ATOM      1  C   UNL     1      -4.102   1.555   0.630  0.00  0.00    +0.019 A 
ATOM      2  C   UNL     1      -2.842   0.943   0.782  0.00  0.00    +0.036 A 
ATOM      3  C   UNL     1      -2.582  -0.322   0.226  0.00  0.00    +0.049 A 
ATOM      4  C   UNL     1      -3.597  -0.982  -0.485  0.00  0.00    +0.034 A 
ATOM      5  S   UNL     1      -3.238  -2.551  -1.281  0.00  0.00    -0.086 S 
ATOM      6  C   UNL     1      -2.410  -3.219   0.165  0.00  0.00    +0.034 A 
ATOM      7  C   UNL     1      -1.457  -2.431   0.837  0.00  0.00    +0.048 A 
ATOM      8  C   UNL     1      -0.728  -2.994   1.900  0.00  0.00    +0.024 A 
ATOM      9  C   UNL     1      -0.962  -4.316   2.291  0.00  0.00    +0.002 A 
ATOM     10  C   UNL     1      -1.933  -5.081   1.637  0.00  0.00    +0.001 A 
ATOM     11  C   UNL     1      -2.657  -4.534   0.574  0.00  0.00    +0.017 A 
ATOM     12  N   UNL     1      -1.354  -1.025   0.518  0.00  0.00    -0.297 N 
ATOM     13  C   UNL     1      -4.857  -0.398  -0.622  0.00  0.00    +0.017 A 
ATOM     14  C   UNL     1      -5.108   0.863  -0.075  0.00  0.00    +0.012 A 
ENDROOT
BRANCH   1  15
ATOM     15  C   UNL     1      -4.344   2.902   1.221  0.00  0.00    +0.163 C 
ATOM     16  O   UNL     1      -3.371   3.559   1.682  0.00  0.00    -0.292 OA
BRANCH  15  18
ATOM     17  C   UNL     1      -5.998   4.303  -0.018  0.00  0.00    +0.012 C 
ATOM     18  C   UNL     1      -5.707   3.539   1.269  0.00  0.00    +0.076 C 
ENDBRANCH  15  18
ENDBRANCH   1  15
BRANCH  12  19
ATOM     19  C   UNL     1      -0.060  -0.325   0.531  0.00  0.00    +0.126 C 
BRANCH  19  20
ATOM     20  C   UNL     1       0.926  -0.989  -0.440  0.00  0.00    +0.104 C 
BRANCH  20  21
ATOM     21  N   UNL     1       2.147  -0.168  -0.595  0.00  0.00    -0.298 NA
ATOM     22  C   UNL     1       2.891  -0.568  -1.805  0.00  0.00    +0.100 C 
ATOM     23  C   UNL     1       4.033   0.431  -2.077  0.00  0.00    +0.100 C 
ATOM     24  N   UNL     1       4.436   1.143  -0.845  0.00  0.00    -0.298 NA
ATOM     25  C   UNL     1       4.444   0.254   0.329  0.00  0.00    +0.100 C 
ATOM     26  C   UNL     1       3.017  -0.260   0.605  0.00  0.00    +0.100 C 
BRANCH  24  27
ATOM     27  C   UNL     1       5.673   1.940  -1.012  0.00  0.00    +0.112 C 
BRANCH  27  28
ATOM     28  C   UNL     1       6.979   1.121  -1.008  0.00  0.00    +0.171 C 
BRANCH  28  29
ATOM     29  O   UNL     1       7.367   0.831   0.307  0.00  0.00    -0.394 OA
ATOM     30  H   UNL     1       8.176   0.261   0.236  0.00  0.00    +0.209 HD
ENDBRANCH  28  29
ENDBRANCH  27  28
ENDBRANCH  24  27
ENDBRANCH  20  21
ENDBRANCH  19  20
ENDBRANCH  12  19
TORSDOF 8
