REMARK  Name = 
REMARK  4 active torsions:
REMARK  status: ('A' for Active; 'I' for Inactive)
REMARK    1  A    between atoms: C_1  and  C_2
REMARK    2  A    between atoms: C_2  and  C_3
REMARK    3  A    between atoms: C_2  and  C_6
REMARK    4  A    between atoms: C_3  and  O_4
REMARK                            x       y       z     vdW  Elec       q    Type
REMARK                         _______ _______ _______ _____ _____    ______ ____
ROOT
ATOM      1  C   UNL     1       1.695   0.228  -0.469  0.00  0.00    -0.032 A 
ATOM      2  C   UNL     1       0.650   0.306  -1.419  0.00  0.00    +0.030 A 
ATOM      3  C   UNL     1      -0.658   0.117  -0.981  0.00  0.00    +0.048 A 
ATOM      4  C   UNL     1      -0.941  -0.150   0.340  0.00  0.00    +0.007 A 
ATOM      5  C   UNL     1       0.057  -0.245   1.304  0.00  0.00    +0.011 A 
ATOM      6  C   UNL     1       1.387  -0.057   0.889  0.00  0.00    +0.005 A 
ATOM      7  C   UNL     1      -2.309  -0.258   0.421  0.00  0.00    +0.009 A 
ATOM      8  C   UNL     1      -2.787  -0.053  -0.857  0.00  0.00    +0.048 A 
ATOM      9  N   UNL     1      -1.782   0.177  -1.729  0.00  0.00    -0.354 N 
ATOM     10  C   UNL     1      -4.151  -0.075  -1.138  0.00  0.00    +0.027 A 
ATOM     11  C   UNL     1      -5.036  -0.314  -0.074  0.00  0.00    +0.022 A 
ATOM     12  C   UNL     1      -4.544  -0.527   1.236  0.00  0.00    +0.042 A 
ATOM     13 CL   UNL     1      -5.665  -0.816   2.548  0.00  0.00    -0.084 Cl
ATOM     14  C   UNL     1      -3.160  -0.501   1.495  0.00  0.00    +0.030 A 
ATOM     15  H   UNL     1      -1.859   0.374  -2.753  0.00  0.00    +0.166 HD
ENDROOT
BRANCH   1  17
ATOM     16  C   UNL     1       3.905  -0.886  -0.858  0.00  0.00    +0.024 C 
ATOM     17  C   UNL     1       3.130   0.439  -0.909  0.00  0.00    +0.124 C 
BRANCH  17  18
ATOM     18  C   UNL     1       3.767   1.560  -0.111  0.00  0.00    +0.312 C 
ATOM     19  O   UNL     1       3.305   2.725  -0.232  0.00  0.00    -0.250 OA
BRANCH  18  20
ATOM     20  O   UNL     1       4.836   1.360   0.763  0.00  0.00    -0.480 OA
ATOM     21  H   UNL     1       5.265   0.458   0.923  0.00  0.00    +0.295 HD
ENDBRANCH  18  20
ENDBRANCH  17  18
ENDBRANCH   1  17
TORSDOF 3
