REMARK  Name = 
REMARK  10 active torsions:
REMARK  status: ('A' for Active; 'I' for Inactive)
REMARK    1  A    between atoms: C_1  and  C_2
REMARK    2  A    between atoms: C_2  and  C_3
REMARK    3  A    between atoms: C_2  and  C_4
REMARK    4  A    between atoms: C_2  and  N_5
REMARK    5  A    between atoms: N_5  and  C_6
REMARK    6  A    between atoms: C_6  and  C_7
REMARK    7  A    between atoms: C_7  and  O_8
REMARK    8  A    between atoms: C_7  and  C_9
REMARK    9  A    between atoms: C_9  and  O_10
REMARK   10  A    between atoms: O_10  and  C_11
REMARK                            x       y       z     vdW  Elec       q    Type
REMARK                         _______ _______ _______ _____ _____    ______ ____
ROOT
ATOM      1  O   UNL     1      -1.248   0.116   0.269  0.00  0.00    -0.489 OA
ENDROOT
BRANCH   1   2
ATOM      2  C   UNL     1      -2.317  -0.616  -0.274  0.00  0.00    +0.126 A 
ATOM      3  C   UNL     1      -2.121  -1.871  -0.883  0.00  0.00    +0.046 A 
ATOM      4  C   UNL     1      -3.197  -2.562  -1.443  0.00  0.00    +0.005 A 
ATOM      5  C   UNL     1      -4.479  -2.015  -1.405  0.00  0.00    +0.024 A 
ATOM      6  C   UNL     1      -4.698  -0.775  -0.794  0.00  0.00    +0.040 A 
ATOM      7  C   UNL     1      -3.619  -0.074  -0.212  0.00  0.00    +0.016 A 
ATOM      8  C   UNL     1      -3.854   1.310   0.357  0.00  0.00    +0.050 C 
ATOM      9  C   UNL     1      -5.247   1.451   0.983  0.00  0.00    +0.101 C 
ATOM     10  C   UNL     1      -6.302   0.922   0.059  0.00  0.00    +0.218 C 
ATOM     11  O   UNL     1      -7.451   1.437   0.048  0.00  0.00    -0.275 OA
ATOM     12  N   UNL     1      -6.021  -0.221  -0.754  0.00  0.00    -0.285 N 
ATOM     13  H   UNL     1      -6.794  -0.664  -1.299  0.00  0.00    +0.155 HD
ENDBRANCH   1   2
BRANCH   1  14
ATOM     14  C   UNL     1       0.110  -0.315   0.278  0.00  0.00    +0.261 C 
BRANCH  14  15
ATOM     15  C   UNL     1       0.982   0.751   0.959  0.00  0.00    +0.166 C 
BRANCH  15  16
ATOM     16  O   UNL     1       0.464   1.067   2.228  0.00  0.00    -0.387 OA
ATOM     17  H   UNL     1       0.497   0.241   2.779  0.00  0.00    +0.210 HD
ENDBRANCH  15  16
BRANCH  15  18
ATOM     18  C   UNL     1       2.455   0.315   1.082  0.00  0.00    +0.116 C 
BRANCH  18  19
ATOM     19  N   UNL     1       3.080   0.223  -0.250  0.00  0.00    -0.309 NA
ATOM     20  H   UNL     1       2.781  -0.689  -0.669  0.00  0.00    +0.123 HD
BRANCH  19  22
ATOM     21  C   UNL     1       5.046  -0.041  -1.690  0.00  0.00    +0.027 C 
ATOM     22  C   UNL     1       4.565   0.280  -0.259  0.00  0.00    +0.011 C 
ATOM     23  C   UNL     1       5.187  -0.752   0.709  0.00  0.00    +0.027 C 
ATOM     24  C   UNL     1       5.054   1.702   0.095  0.00  0.00    +0.027 C 
ENDBRANCH  19  22
ENDBRANCH  18  19
ENDBRANCH  15  18
ENDBRANCH  14  15
ENDBRANCH   1  14
TORSDOF 7
