REMARK  Name = 
REMARK  12 active torsions:
REMARK  status: ('A' for Active; 'I' for Inactive)
REMARK    1  A    between atoms: C_1  and  O_2
REMARK    2  A    between atoms: O_2  and  C_3
REMARK    3  A    between atoms: C_8  and  O_9
REMARK    4  A    between atoms: O_9  and  C_10
REMARK    5  A    between atoms: C_10  and  C_11
REMARK    6  A    between atoms: C_11  and  N_12
REMARK    7  A    between atoms: N_12  and  C_13
REMARK    8  A    between atoms: C_13  and  C_14
REMARK    9  A    between atoms: C_14  and  O_15
REMARK   10  A    between atoms: C_14  and  C_16
REMARK   11  A    between atoms: C_16  and  O_17
REMARK   12  A    between atoms: O_17  and  C_18
REMARK                            x       y       z     vdW  Elec       q    Type
REMARK                         _______ _______ _______ _____ _____    ______ ____
ROOT
ATOM      1  C   UNL     1      -0.306   0.640  -1.146  0.00  0.00    +0.166 C 
ENDROOT
BRANCH   1   2
ATOM      2  O   UNL     1      -1.582   1.185  -1.369  0.00  0.00    -0.387 OA
ATOM      3  H   UNL     1      -1.733   1.893  -0.690  0.00  0.00    +0.210 HD
ENDBRANCH   1   2
BRANCH   1   4
ATOM      4  C   UNL     1      -0.243  -0.061   0.226  0.00  0.00    +0.115 C 
BRANCH   4   5
ATOM      5  N   UNL     1      -0.361   0.911   1.326  0.00  0.00    -0.310 NA
ATOM      6  H   UNL     1       0.592   1.309   1.503  0.00  0.00    +0.122 HD
BRANCH   5   7
ATOM      7  C   UNL     1      -0.827   0.279   2.570  0.00  0.00    +0.122 C 
BRANCH   7   8
ATOM      8  C   UNL     1      -2.323   0.523   2.756  0.00  0.00    +0.244 C 
BRANCH   8   9
ATOM      9  O   UNL     1      -3.043  -0.009   1.648  0.00  0.00    -0.487 OA
BRANCH   9  15
ATOM     10  C   UNL     1      -4.978  -0.375   0.264  0.00  0.00    +0.161 A 
ATOM     11  C   UNL     1      -6.367  -0.276   0.048  0.00  0.00    +0.049 A 
ATOM     12  C   UNL     1      -7.192   0.295   1.019  0.00  0.00    +0.004 A 
ATOM     13  C   UNL     1      -6.644   0.772   2.210  0.00  0.00    +0.004 A 
ATOM     14  C   UNL     1      -5.269   0.679   2.436  0.00  0.00    +0.049 A 
ATOM     15  C   UNL     1      -4.428   0.103   1.464  0.00  0.00    +0.162 A 
BRANCH  10  17
ATOM     16  C   UNL     1      -4.522  -1.436  -1.956  0.00  0.00    +0.277 C 
ATOM     17  O   UNL     1      -4.112  -0.936  -0.688  0.00  0.00    -0.491 OA
ENDBRANCH  10  17
ENDBRANCH   9  15
ENDBRANCH   8   9
ENDBRANCH   7   8
ENDBRANCH   5   7
ENDBRANCH   4   5
ENDBRANCH   1   4
BRANCH   1  18
ATOM     18  C   UNL     1       0.784   1.715  -1.330  0.00  0.00    +0.261 C 
BRANCH  18  19
ATOM     19  O   UNL     1       2.079   1.190  -1.041  0.00  0.00    -0.489 OA
BRANCH  19  20
ATOM     20  C   UNL     1       2.782   0.273  -1.837  0.00  0.00    +0.130 A 
ATOM     21  C   UNL     1       2.415  -0.039  -3.168  0.00  0.00    +0.046 A 
ATOM     22  C   UNL     1       3.166  -0.966  -3.923  0.00  0.00    +0.006 A 
ATOM     23  C   UNL     1       4.293  -1.597  -3.369  0.00  0.00    +0.026 A 
ATOM     24  C   UNL     1       4.641  -1.279  -2.059  0.00  0.00    +0.051 A 
ATOM     25  C   UNL     1       3.909  -0.372  -1.317  0.00  0.00    +0.049 A 
ATOM     26  C   UNL     1       4.518  -0.319  -0.079  0.00  0.00    +0.011 A 
ATOM     27  C   UNL     1       4.222   0.397   1.082  0.00  0.00    +0.011 A 
ATOM     28  C   UNL     1       5.056   0.209   2.199  0.00  0.00    +0.001 A 
ATOM     29  C   UNL     1       6.151  -0.680   2.135  0.00  0.00    +0.002 A 
ATOM     30  C   UNL     1       6.425  -1.394   0.954  0.00  0.00    +0.026 A 
ATOM     31  C   UNL     1       5.587  -1.191  -0.141  0.00  0.00    +0.048 A 
ATOM     32  N   UNL     1       5.674  -1.785  -1.350  0.00  0.00    -0.354 N 
ATOM     33  H   UNL     1       6.378  -2.489  -1.665  0.00  0.00    +0.166 HD
ENDBRANCH  19  20
ENDBRANCH  18  19
ENDBRANCH   1  18
TORSDOF 11
