REMARK  Name = 
REMARK  37 active torsions:
REMARK  status: ('A' for Active; 'I' for Inactive)
REMARK    1  A    between atoms: C_1  and  C_2
REMARK    2  A    between atoms: C_2  and  C_3
REMARK    3  A    between atoms: C_3  and  C_4
REMARK    4  A    between atoms: C_3  and  C_5
REMARK    5  A    between atoms: C_5  and  C_6
REMARK    6  A    between atoms: C_6  and  C_7
REMARK    7  A    between atoms: C_6  and  C_8
REMARK    8  A    between atoms: C_8  and  C_9
REMARK    9  A    between atoms: C_9  and  C_10
REMARK   10  A    between atoms: C_10  and  C_11
REMARK   11  A    between atoms: C_11  and  C_12
REMARK   12  A    between atoms: C_12  and  C_13
REMARK   13  A    between atoms: C_13  and  C_14
REMARK   14  A    between atoms: C_14  and  C_15
REMARK   15  A    between atoms: C_15  and  C_16
REMARK   16  A    between atoms: N_18  and  C_19
REMARK   17  A    between atoms: C_21  and  O_22
REMARK   18  A    between atoms: C_23  and  N_24
REMARK   19  A    between atoms: N_24  and  C_25
REMARK   20  A    between atoms: C_25  and  C_26
REMARK   21  A    between atoms: C_26  and  N_27
REMARK   22  A    between atoms: C_32  and  O_33
REMARK   23  A    between atoms: C_39  and  C_73
REMARK   24  A    between atoms: C_43  and  C_62
REMARK   25  A    between atoms: C_49  and  O_50
REMARK   26  A    between atoms: C_55  and  C_59
REMARK   27  A    between atoms: C_59  and  C_60
REMARK   28  A    between atoms: C_59  and  O_61
REMARK   29  A    between atoms: C_62  and  O_63
REMARK   30  A    between atoms: C_62  and  C_64
REMARK   31  A    between atoms: C_64  and  O_65
REMARK   32  A    between atoms: C_64  and  C_66
REMARK   33  A    between atoms: C_69  and  O_70
REMARK   34  A    between atoms: C_73  and  O_74
REMARK   35  A    between atoms: C_73  and  C_75
REMARK   36  A    between atoms: C_75  and  C_76
REMARK   37  A    between atoms: C_76  and  N_77
REMARK                            x       y       z     vdW  Elec       q    Type
REMARK                         _______ _______ _______ _____ _____    ______ ____
ROOT
ATOM      1  C   UNL     1       1.873   0.794   0.011  0.00  0.00    +0.161 C 
ATOM      2  C   UNL     1       1.229   2.051  -0.616  0.00  0.00    +0.066 C 
ATOM      3  C   UNL     1      -0.227   2.287  -0.158  0.00  0.00    +0.151 C 
ATOM      4  C   UNL     1      -0.901   3.429  -0.949  0.00  0.00    +0.170 C 
ATOM      5  N   UNL     1      -2.323   3.528  -0.591  0.00  0.00    -0.296 N 
ATOM      6  C   UNL     1      -2.830   4.606   0.202  0.00  0.00    +0.237 C 
ATOM      7  O   UNL     1      -2.200   4.978   1.228  0.00  0.00    -0.274 OA
ATOM      8  C   UNL     1      -4.091   5.307  -0.230  0.00  0.00    +0.190 C 
ATOM      9  C   UNL     1      -4.403   6.610   0.506  0.00  0.00    +0.145 C 
ATOM     10  C   UNL     1      -5.907   6.821   0.279  0.00  0.00    +0.052 C 
ATOM     11  C   UNL     1      -6.442   5.468  -0.212  0.00  0.00    +0.111 C 
ATOM     12  N   UNL     1      -5.327   4.532  -0.107  0.00  0.00    -0.286 N 
ATOM     13  C   UNL     1      -5.486   3.285   0.607  0.00  0.00    +0.239 C 
ATOM     14  O   UNL     1      -4.666   2.960   1.508  0.00  0.00    -0.273 OA
ATOM     15  C   UNL     1      -6.675   2.396   0.333  0.00  0.00    +0.188 C 
ATOM     16  N   UNL     1      -6.226   1.016   0.098  0.00  0.00    -0.300 N 
ATOM     17  C   UNL     1      -6.650   0.241  -1.043  0.00  0.00    +0.237 C 
ATOM     18  O   UNL     1      -7.140   0.823  -2.050  0.00  0.00    -0.274 OA
ATOM     19  C   UNL     1      -6.549  -1.273  -1.067  0.00  0.00    +0.190 C 
ATOM     20  N   UNL     1      -5.696  -1.783   0.018  0.00  0.00    -0.300 N 
ATOM     21  C   UNL     1      -4.272  -1.614   0.037  0.00  0.00    +0.234 C 
ATOM     22  O   UNL     1      -3.695  -0.958  -0.874  0.00  0.00    -0.274 OA
ATOM     23  C   UNL     1      -3.473  -2.234   1.157  0.00  0.00    +0.164 C 
ATOM     24  C   UNL     1      -3.821  -1.583   2.502  0.00  0.00    +0.065 C 
ATOM     25  C   UNL     1      -2.697  -0.581   2.757  0.00  0.00    +0.134 C 
ATOM     26  C   UNL     1      -1.497  -1.113   1.978  0.00  0.00    +0.140 C 
ATOM     27  N   UNL     1      -2.036  -2.027   0.981  0.00  0.00    -0.286 N 
ATOM     28  C   UNL     1      -1.275  -2.718  -0.039  0.00  0.00    +0.239 C 
ATOM     29  O   UNL     1      -1.904  -3.379  -0.911  0.00  0.00    -0.273 OA
ATOM     30  C   UNL     1       0.245  -2.780  -0.096  0.00  0.00    +0.187 C 
ATOM     31  N   UNL     1       0.894  -1.548   0.370  0.00  0.00    -0.300 N 
ATOM     32  C   UNL     1       1.265  -0.482  -0.526  0.00  0.00    +0.234 C 
ATOM     33  O   UNL     1       1.171  -0.644  -1.775  0.00  0.00    -0.274 OA
ATOM     34  H   UNL     1      -2.998   2.793  -0.895  0.00  0.00    +0.150 HD
ATOM     35  H   UNL     1      -5.665   0.562   0.850  0.00  0.00    +0.150 HD
ATOM     36  H   UNL     1      -6.117  -2.296   0.822  0.00  0.00    +0.150 HD
ATOM     37  H   UNL     1       1.148  -1.447   1.380  0.00  0.00    +0.150 HD
ENDROOT
BRANCH   1  40
ATOM     38  C   UNL     1       4.237   1.572   0.520  0.00  0.00    +0.214 C 
ATOM     39  O   UNL     1       3.849   2.158   1.566  0.00  0.00    -0.276 OA
ATOM     40  N   UNL     1       3.314   0.800  -0.259  0.00  0.00    -0.304 N 
ATOM     41  H   UNL     1       3.661   0.364  -1.146  0.00  0.00    +0.149 HD
BRANCH  38  42
ATOM     42  C   UNL     1       5.673   1.694   0.102  0.00  0.00    +0.096 C 
BRANCH  42  43
ATOM     43  C   UNL     1       6.572   0.676   0.821  0.00  0.00    +0.009 C 
BRANCH  43  44
ATOM     44  C   UNL     1       6.306  -0.798   0.448  0.00  0.00    +0.000 C 
BRANCH  44  45
ATOM     45  C   UNL     1       6.572  -1.166  -1.030  0.00  0.00    +0.000 C 
BRANCH  45  46
ATOM     46  C   UNL     1       8.052  -1.092  -1.437  0.00  0.00    +0.000 C 
BRANCH  46  47
ATOM     47  C   UNL     1       8.877  -2.300  -0.934  0.00  0.00    +0.000 C 
BRANCH  47  48
ATOM     48  C   UNL     1      10.333  -1.911  -0.630  0.00  0.00    +0.000 C 
BRANCH  48  49
ATOM     49  C   UNL     1      10.459  -1.277   0.773  0.00  0.00    +0.003 C 
BRANCH  49  50
ATOM     50  C   UNL     1      11.759  -0.468   1.003  0.00  0.00    -0.014 C 
ATOM     51  C   UNL     1      11.762   0.835   0.180  0.00  0.00    +0.007 C 
BRANCH  50  52
ATOM     52  C   UNL     1      13.024  -1.324   0.748  0.00  0.00    +0.006 C 
BRANCH  52  53
ATOM     53  C   UNL     1      14.359  -0.676   1.214  0.00  0.00    -0.014 C 
ATOM     54  C   UNL     1      14.390  -0.494   2.742  0.00  0.00    +0.007 C 
BRANCH  53  56
ATOM     55  C   UNL     1      15.828  -1.493  -0.731  0.00  0.00    +0.004 C 
ATOM     56  C   UNL     1      15.576  -1.528   0.777  0.00  0.00    -0.000 C 
ENDBRANCH  53  56
ENDBRANCH  52  53
ENDBRANCH  50  52
ENDBRANCH  49  50
ENDBRANCH  48  49
ENDBRANCH  47  48
ENDBRANCH  46  47
ENDBRANCH  45  46
ENDBRANCH  44  45
ENDBRANCH  43  44
ENDBRANCH  42  43
ENDBRANCH  38  42
ENDBRANCH   1  40
BRANCH   9  57
ATOM     57  O   UNL     1      -3.624   7.691   0.047  0.00  0.00    -0.389 OA
ATOM     58  H   UNL     1      -3.826   7.838  -0.915  0.00  0.00    +0.210 HD
ENDBRANCH   9  57
BRANCH  25  59
ATOM     59  O   UNL     1      -2.425  -0.421   4.125  0.00  0.00    -0.390 OA
ATOM     60  H   UNL     1      -2.165  -1.306   4.494  0.00  0.00    +0.210 HD
ENDBRANCH  25  59
BRANCH  30  61
ATOM     61  C   UNL     1       0.823  -4.035   0.622  0.00  0.00    +0.141 C 
ATOM     62  C   UNL     1       0.397  -4.164   2.085  0.00  0.00    +0.040 C 
BRANCH  61  63
ATOM     63  O   UNL     1       0.433  -5.198  -0.064  0.00  0.00    -0.390 OA
ATOM     64  H   UNL     1       1.017  -5.268  -0.862  0.00  0.00    +0.210 HD
ENDBRANCH  61  63
ENDBRANCH  30  61
BRANCH   3  65
ATOM     65  O   UNL     1      -0.223   2.654   1.202  0.00  0.00    -0.389 OA
ATOM     66  H   UNL     1      -0.319   1.832   1.744  0.00  0.00    +0.210 HD
ENDBRANCH   3  65
BRANCH   4  67
ATOM     67  N   UNL     1      -0.724   3.316  -2.412  0.00  0.00    -0.295 NA
ATOM     68  H   UNL     1      -0.985   4.234  -2.844  0.00  0.00    +0.124 HD
BRANCH  67  69
ATOM     69  C   UNL     1      -1.530   2.265  -3.053  0.00  0.00    +0.097 C 
BRANCH  69  70
ATOM     70  C   UNL     1      -1.051   2.029  -4.492  0.00  0.00    +0.093 C 
BRANCH  70  71
ATOM     71  N   UNL     1       0.314   1.508  -4.540  0.00  0.00    -0.329 NA
ATOM     72  H   UNL     1       0.967   2.221  -4.144  0.00  0.00    +0.118 HD
ATOM     73  H   UNL     1       0.369   0.649  -3.950  0.00  0.00    +0.118 HD
ENDBRANCH  70  71
ENDBRANCH  69  70
ENDBRANCH  67  69
ENDBRANCH   4  67
BRANCH  19  74
ATOM     74  C   UNL     1      -7.970  -1.901  -1.020  0.00  0.00    +0.176 C 
BRANCH  74  75
ATOM     75  O   UNL     1      -8.601  -1.614   0.207  0.00  0.00    -0.387 OA
ATOM     76  H   UNL     1      -8.365  -2.325   0.858  0.00  0.00    +0.210 HD
ENDBRANCH  74  75
BRANCH  74  77
ATOM     77  C   UNL     1      -7.986  -3.416  -1.380  0.00  0.00    +0.175 C 
BRANCH  77  78
ATOM     78  C   UNL     1      -9.407  -3.950  -1.402  0.00  0.00    -0.016 A 
ATOM     79  C   UNL     1      -9.926  -4.715  -0.335  0.00  0.00    +0.010 A 
ATOM     80  C   UNL     1     -11.254  -5.157  -0.363  0.00  0.00    +0.046 A 
ATOM     81  C   UNL     1     -12.079  -4.832  -1.446  0.00  0.00    +0.117 A 
ATOM     82  C   UNL     1     -11.570  -4.071  -2.504  0.00  0.00    +0.046 A 
ATOM     83  C   UNL     1     -10.245  -3.630  -2.482  0.00  0.00    +0.010 A 
BRANCH  81  84
ATOM     84  O   UNL     1     -13.402  -5.266  -1.486  0.00  0.00    -0.507 OA
ATOM     85  H   UNL     1     -13.782  -5.884  -0.779  0.00  0.00    +0.292 HD
ENDBRANCH  81  84
ENDBRANCH  77  78
BRANCH  77  86
ATOM     86  O   UNL     1      -7.181  -4.151  -0.488  0.00  0.00    -0.385 OA
ATOM     87  H   UNL     1      -6.932  -4.995  -0.951  0.00  0.00    +0.210 HD
ENDBRANCH  77  86
ENDBRANCH  74  77
ENDBRANCH  19  74
BRANCH  15  88
ATOM     88  C   UNL     1      -7.692   2.450   1.505  0.00  0.00    +0.145 C 
BRANCH  88  89
ATOM     89  O   UNL     1      -7.213   1.735   2.618  0.00  0.00    -0.389 OA
ATOM     90  H   UNL     1      -7.365   0.771   2.459  0.00  0.00    +0.210 HD
ENDBRANCH  88  89
BRANCH  88  91
ATOM     91  C   UNL     1      -9.094   1.960   1.063  0.00  0.00    +0.048 C 
BRANCH  91  92
ATOM     92  C   UNL     1     -10.179   2.237   2.111  0.00  0.00    +0.080 C 
BRANCH  92  93
ATOM     93  N   UNL     1      -9.939   1.473   3.331  0.00  0.00    -0.330 NA
ATOM     94  H   UNL     1     -10.181   0.474   3.150  0.00  0.00    +0.118 HD
ATOM     95  H   UNL     1     -10.600   1.816   4.064  0.00  0.00    +0.118 HD
ENDBRANCH  92  93
ENDBRANCH  91  92
ENDBRANCH  88  91
ENDBRANCH  15  88
TORSDOF 33
