REMARK  Name = 
REMARK  6 active torsions:
REMARK  status: ('A' for Active; 'I' for Inactive)
REMARK    1  A    between atoms: CA_6  and  C_22
REMARK    2  A    between atoms: CA_10  and  N_11
REMARK    3  A    between atoms: C_12  and  CA_14
REMARK    4  A    between atoms: CA_14  and  N_15
REMARK    5  A    between atoms: CA_14  and  C_16
REMARK    6  A    between atoms: C_22  and  O_23
REMARK                            x       y       z     vdW  Elec       q    Type
REMARK                         _______ _______ _______ _____ _____    ______ ____
ROOT
ATOM      1  C   UNL     1       1.383   0.354   1.671  0.00  0.00    +0.169 C 
ATOM      2  S   UNL     1       0.477  -1.026   0.887  0.00  0.00    -0.130 S 
ATOM      3  C   UNL     1       1.861  -2.197   1.182  0.00  0.00    +0.120 C 
ATOM      4  C   UNL     1       3.151  -1.785   0.500  0.00  0.00    +0.057 C 
ATOM      5 CL   UNL     1       4.063  -3.075  -0.285  0.00  0.00    -0.085 Cl
ATOM      6  CA  UNL     1       3.557  -0.492   0.488  0.00  0.00    +0.137 C 
ATOM      7  N   UNL     1       2.647   0.492   0.991  0.00  0.00    -0.248 N 
ATOM      8  C   UNL     1       2.318   1.917   0.738  0.00  0.00    +0.244 C 
ATOM      9  O   UNL     1       2.898   2.887   0.184  0.00  0.00    -0.273 OA
ATOM     10  CA  UNL     1       0.976   1.710   1.373  0.00  0.00    +0.191 C 
ENDROOT
BRANCH  10  11
ATOM     11  N   UNL     1      -0.107   1.818   0.392  0.00  0.00    -0.300 N 
ATOM     12  C   UNL     1      -1.484   1.832   0.791  0.00  0.00    +0.235 C 
ATOM     13  O   UNL     1      -1.787   1.843   2.016  0.00  0.00    -0.274 OA
ATOM     14  H   UNL     1       0.118   1.804  -0.629  0.00  0.00    +0.150 HD
BRANCH  12  15
ATOM     15  CA  UNL     1      -2.564   1.763  -0.258  0.00  0.00    +0.168 C 
BRANCH  15  16
ATOM     16  C   UNL     1      -2.706   0.344  -0.776  0.00  0.00    -0.022 A 
ATOM     17  C   UNL     1      -2.510   0.069  -2.141  0.00  0.00    +0.005 A 
ATOM     18  C   UNL     1      -2.622  -1.240  -2.622  0.00  0.00    +0.000 A 
ATOM     19  C   UNL     1      -2.932  -2.284  -1.748  0.00  0.00    +0.000 A 
ATOM     20  C   UNL     1      -3.131  -2.023  -0.390  0.00  0.00    +0.000 A 
ATOM     21  C   UNL     1      -3.021  -0.717   0.096  0.00  0.00    +0.005 A 
ENDBRANCH  15  16
BRANCH  15  22
ATOM     22  N   UNL     1      -3.838   2.275   0.256  0.00  0.00    -0.316 NA
ATOM     23  H1  UNL     1      -4.213   1.634   0.993  0.00  0.00    +0.119 HD
ATOM     24  H2  UNL     1      -4.531   2.283  -0.527  0.00  0.00    +0.119 HD
ENDBRANCH  15  22
ENDBRANCH  12  15
ENDBRANCH  10  11
BRANCH   6  25
ATOM     25  C   UNL     1       4.847  -0.052  -0.098  0.00  0.00    +0.353 C 
ATOM     26  OXT UNL     1       4.994   1.145  -0.461  0.00  0.00    -0.244 OA
BRANCH  25  27
ATOM     27  O   UNL     1       5.923  -0.927  -0.212  0.00  0.00    -0.476 OA
ATOM     28  H   UNL     1       6.807  -0.618  -0.598  0.00  0.00    +0.295 HD
ENDBRANCH  25  27
ENDBRANCH   6  25
TORSDOF 6
