REMARK  Name = 
REMARK  10 active torsions:
REMARK  status: ('A' for Active; 'I' for Inactive)
REMARK    1  A    between atoms: C_4  and  C_5
REMARK    2  A    between atoms: C_5  and  S_6
REMARK    3  A    between atoms: S_6  and  C_7
REMARK    4  A    between atoms: N_11  and  C_12
REMARK    5  A    between atoms: CA_13  and  C_29
REMARK    6  A    between atoms: CA_17  and  N_18
REMARK    7  A    between atoms: C_19  and  C_21
REMARK    8  A    between atoms: C_21  and  O_22
REMARK    9  A    between atoms: C_21  and  C_23
REMARK   10  A    between atoms: C_29  and  O_30
REMARK                            x       y       z     vdW  Elec       q    Type
REMARK                         _______ _______ _______ _____ _____    ______ ____
ROOT
ATOM      1  C   UNL     1       0.394  -0.414   2.397  0.00  0.00    +0.169 C 
ATOM      2  S   UNL     1       0.347   0.604   0.882  0.00  0.00    -0.131 S 
ATOM      3  C   UNL     1      -1.025   1.637   1.531  0.00  0.00    +0.104 C 
ATOM      4  C   UNL     1      -2.296   0.843   1.808  0.00  0.00    -0.021 C 
ATOM      5  CA  UNL     1      -2.224  -0.369   2.424  0.00  0.00    +0.123 C 
ATOM      6  N   UNL     1      -0.928  -0.943   2.620  0.00  0.00    -0.249 N 
ATOM      7  C   UNL     1      -0.333  -2.299   2.713  0.00  0.00    +0.244 C 
ATOM      8  O   UNL     1      -0.765  -3.455   2.960  0.00  0.00    -0.273 OA
ATOM      9  CA  UNL     1       1.001  -1.727   2.335  0.00  0.00    +0.191 C 
ENDROOT
BRANCH   9  10
ATOM     10  N   UNL     1       1.398  -2.149   0.989  0.00  0.00    -0.299 N 
ATOM     11  C   UNL     1       2.676  -1.804   0.436  0.00  0.00    +0.247 C 
ATOM     12  O   UNL     1       3.559  -1.274   1.165  0.00  0.00    -0.273 OA
ATOM     13  H   UNL     1       0.718  -2.676   0.395  0.00  0.00    +0.150 HD
BRANCH  11  14
ATOM     14  C   UNL     1       2.966  -2.070  -1.022  0.00  0.00    +0.230 C 
BRANCH  14  15
ATOM     15  C   UNL     1       3.430  -0.803  -1.714  0.00  0.00    -0.010 A 
ATOM     16  C   UNL     1       4.795  -0.455  -1.776  0.00  0.00    +0.006 A 
ATOM     17  C   UNL     1       5.192   0.736  -2.393  0.00  0.00    +0.000 A 
ATOM     18  C   UNL     1       4.235   1.599  -2.936  0.00  0.00    +0.000 A 
ATOM     19  C   UNL     1       2.878   1.277  -2.853  0.00  0.00    +0.000 A 
ATOM     20  C   UNL     1       2.475   0.085  -2.243  0.00  0.00    +0.006 A 
ENDBRANCH  14  15
BRANCH  14  21
ATOM     21  O   UNL     1       3.885  -3.125  -1.188  0.00  0.00    -0.378 OA
ATOM     22  H   UNL     1       4.610  -3.024  -0.517  0.00  0.00    +0.211 HD
ENDBRANCH  14  21
ENDBRANCH  11  14
ENDBRANCH   9  10
BRANCH   5  23
ATOM     23  C   UNL     1      -3.415  -1.174   2.781  0.00  0.00    +0.351 C 
ATOM     24  OXT UNL     1      -4.446  -0.626   3.256  0.00  0.00    -0.244 OA
BRANCH  23  25
ATOM     25  O   UNL     1      -3.390  -2.556   2.622  0.00  0.00    -0.476 OA
ATOM     26  H   UNL     1      -4.191  -3.122   2.869  0.00  0.00    +0.295 HD
ENDBRANCH  23  25
ENDBRANCH   5  23
BRANCH   4  27
ATOM     27  C   UNL     1      -3.610   1.458   1.365  0.00  0.00    +0.111 C 
BRANCH  27  28
ATOM     28  S   UNL     1      -4.435   0.454   0.075  0.00  0.00    -0.080 S 
BRANCH  28  29
ATOM     29  C   UNL     1      -3.156   0.697  -1.162  0.00  0.00    +0.209 A 
ATOM     30  N   UNL     1      -2.132  -0.150  -1.367  0.00  0.00    -0.102 NA
ATOM     31  N   UNL     1      -1.437   0.389  -2.361  0.00  0.00    -0.022 NA
ATOM     32  N   UNL     1      -2.008   1.519  -2.756  0.00  0.00    -0.043 NA
ATOM     33  N   UNL     1      -3.091   1.720  -2.029  0.00  0.00    -0.223 N 
ATOM     34  C   UNL     1      -3.948   2.894  -2.112  0.00  0.00    +0.177 C 
ENDBRANCH  28  29
ENDBRANCH  27  28
ENDBRANCH   4  27
TORSDOF 9
