REMARK  Name = 
REMARK  8 active torsions:
REMARK  status: ('A' for Active; 'I' for Inactive)
REMARK    1  A    between atoms: C_4  and  C_5
REMARK    2  A    between atoms: CA_6  and  C_23
REMARK    3  A    between atoms: CA_10  and  N_11
REMARK    4  A    between atoms: C_12  and  CA_14
REMARK    5  A    between atoms: CA_14  and  N_15
REMARK    6  A    between atoms: CA_14  and  C_16
REMARK    7  A    between atoms: C_19  and  O_20
REMARK    8  A    between atoms: C_23  and  O_24
REMARK                            x       y       z     vdW  Elec       q    Type
REMARK                         _______ _______ _______ _____ _____    ______ ____
ROOT
ATOM      1  N   UNL     1      -0.376  -0.506   0.064  0.00  0.00    -0.300 N 
ATOM      2  C   UNL     1      -1.391  -1.171  -0.704  0.00  0.00    +0.235 C 
ATOM      3  O   UNL     1      -1.247  -2.382  -1.025  0.00  0.00    -0.274 OA
ATOM      4  H   UNL     1      -0.524   0.489   0.347  0.00  0.00    +0.150 HD
ENDROOT
BRANCH   1  14
ATOM      5  C   UNL     1       1.918  -1.155  -0.507  0.00  0.00    +0.169 C 
ATOM      6  S   UNL     1       1.615  -0.312  -2.097  0.00  0.00    -0.131 S 
ATOM      7  C   UNL     1       3.413  -0.109  -2.422  0.00  0.00    +0.103 C 
ATOM      8  C   UNL     1       4.144   0.707  -1.362  0.00  0.00    -0.034 C 
ATOM      9  C   UNL     1       5.294   1.566  -1.827  0.00  0.00    +0.042 C 
ATOM     10  CA  UNL     1       3.831   0.569  -0.045  0.00  0.00    +0.122 C 
ATOM     11  N   UNL     1       2.734  -0.281   0.295  0.00  0.00    -0.249 N 
ATOM     12  C   UNL     1       1.703  -0.340   1.358  0.00  0.00    +0.244 C 
ATOM     13  O   UNL     1       1.572   0.159   2.506  0.00  0.00    -0.273 OA
ATOM     14  CA  UNL     1       0.851  -1.196   0.470  0.00  0.00    +0.191 C 
BRANCH  10  15
ATOM     15  C   UNL     1       4.518   1.289   1.057  0.00  0.00    +0.351 C 
ATOM     16  OXT UNL     1       5.148   2.361   0.854  0.00  0.00    -0.244 OA
BRANCH  15  17
ATOM     17  O   UNL     1       4.441   0.783   2.351  0.00  0.00    -0.476 OA
ATOM     18  H   UNL     1       4.891   1.260   3.124  0.00  0.00    +0.295 HD
ENDBRANCH  15  17
ENDBRANCH  10  15
ENDBRANCH   1  14
BRANCH   2  19
ATOM     19  CA  UNL     1      -2.650  -0.449  -1.103  0.00  0.00    +0.168 C 
BRANCH  19  20
ATOM     20  C   UNL     1      -3.592  -0.379   0.080  0.00  0.00    -0.022 A 
ATOM     21  C   UNL     1      -3.460   0.622   1.061  0.00  0.00    +0.009 A 
ATOM     22  C   UNL     1      -4.314   0.646   2.168  0.00  0.00    +0.046 A 
ATOM     23  C   UNL     1      -5.303  -0.335   2.316  0.00  0.00    +0.117 A 
ATOM     24  C   UNL     1      -5.430  -1.341   1.354  0.00  0.00    +0.046 A 
ATOM     25  C   UNL     1      -4.578  -1.368   0.246  0.00  0.00    +0.009 A 
BRANCH  23  26
ATOM     26  O   UNL     1      -6.159  -0.321   3.415  0.00  0.00    -0.507 OA
ATOM     27  H   UNL     1      -6.091   0.394   4.129  0.00  0.00    +0.292 HD
ENDBRANCH  23  26
ENDBRANCH  19  20
BRANCH  19  28
ATOM     28  N   UNL     1      -2.336   0.889  -1.609  0.00  0.00    -0.316 NA
ATOM     29  H1  UNL     1      -3.225   1.330  -1.940  0.00  0.00    +0.119 HD
ATOM     30  H2  UNL     1      -1.729   0.787  -2.455  0.00  0.00    +0.119 HD
ENDBRANCH  19  28
ENDBRANCH   2  19
TORSDOF 7
