REMARK  Name = 
REMARK  9 active torsions:
REMARK  status: ('A' for Active; 'I' for Inactive)
REMARK    1  A    between atoms: C_4  and  C_5
REMARK    2  A    between atoms: C_5  and  O_6
REMARK    3  A    between atoms: O_6  and  C_7
REMARK    4  A    between atoms: C_7  and  C_8
REMARK    5  A    between atoms: CA_10  and  C_24
REMARK    6  A    between atoms: CA_14  and  N_15
REMARK    7  A    between atoms: C_16  and  C_18
REMARK    8  A    between atoms: C_18  and  C_19
REMARK    9  A    between atoms: C_24  and  O_25
REMARK                            x       y       z     vdW  Elec       q    Type
REMARK                         _______ _______ _______ _____ _____    ______ ____
ROOT
ATOM      1  C   UNL     1      -0.208  -1.209   1.528  0.00  0.00    +0.169 C 
ATOM      2  S   UNL     1       0.392  -2.024   0.009  0.00  0.00    -0.131 S 
ATOM      3  C   UNL     1       2.126  -2.051   0.616  0.00  0.00    +0.107 C 
ATOM      4  C   UNL     1       2.702  -0.668   0.902  0.00  0.00    +0.006 C 
ATOM      5  CA  UNL     1       1.930   0.299   1.468  0.00  0.00    +0.125 C 
ATOM      6  N   UNL     1       0.550   0.004   1.692  0.00  0.00    -0.249 N 
ATOM      7  C   UNL     1      -0.723   0.762   1.724  0.00  0.00    +0.244 C 
ATOM      8  O   UNL     1      -1.040   1.974   1.849  0.00  0.00    -0.273 OA
ATOM      9  CA  UNL     1      -1.476  -0.512   1.487  0.00  0.00    +0.191 C 
ENDROOT
BRANCH   9  10
ATOM     10  N   UNL     1      -2.136  -0.519   0.179  0.00  0.00    -0.301 N 
ATOM     11  C   UNL     1      -2.989  -1.599  -0.226  0.00  0.00    +0.219 C 
ATOM     12  O   UNL     1      -3.187  -2.577   0.545  0.00  0.00    -0.275 OA
ATOM     13  H   UNL     1      -2.022   0.298  -0.464  0.00  0.00    +0.150 HD
BRANCH  11  14
ATOM     14  C   UNL     1      -3.680  -1.552  -1.552  0.00  0.00    +0.138 C 
BRANCH  14  15
ATOM     15  C   UNL     1      -4.902  -0.695  -1.461  0.00  0.00    -0.001 A 
ATOM     16  C   UNL     1      -4.950   0.678  -1.666  0.00  0.00    +0.011 A 
ATOM     17  C   UNL     1      -6.221   1.222  -1.441  0.00  0.00    +0.008 A 
ATOM     18  C   UNL     1      -7.168   0.285  -1.047  0.00  0.00    +0.045 A 
ATOM     19  S   UNL     1      -6.423  -1.221  -0.976  0.00  0.00    -0.101 S 
ENDBRANCH  14  15
ENDBRANCH  11  14
ENDBRANCH   9  10
BRANCH   5  20
ATOM     20  C   UNL     1       2.408   1.661   1.812  0.00  0.00    +0.351 C 
ATOM     21  OXT UNL     1       3.389   2.185   1.220  0.00  0.00    -0.244 OA
BRANCH  20  22
ATOM     22  O   UNL     1       1.736   2.391   2.787  0.00  0.00    -0.476 OA
ATOM     23  H   UNL     1       2.031   3.328   3.031  0.00  0.00    +0.295 HD
ENDBRANCH  20  22
ENDBRANCH   5  20
BRANCH   4  24
ATOM     24  C   UNL     1       4.174  -0.474   0.627  0.00  0.00    +0.266 C 
BRANCH  24  25
ATOM     25  O   UNL     1       4.339   0.293  -0.562  0.00  0.00    -0.460 OA
BRANCH  25  26
ATOM     26  C   UNL     1       5.595   0.641  -1.066  0.00  0.00    +0.304 C 
ATOM     27  C   UNL     1       5.688   1.469  -2.302  0.00  0.00    +0.136 C 
ATOM     28  O   UNL     1       6.649   0.293  -0.468  0.00  0.00    -0.251 OA
ENDBRANCH  25  26
ENDBRANCH  24  25
ENDBRANCH   4  24
TORSDOF 8
