REMARK  Name = 
REMARK  9 active torsions:
REMARK  status: ('A' for Active; 'I' for Inactive)
REMARK    1  A    between atoms: C_4  and  C_5
REMARK    2  A    between atoms: C_5  and  O_6
REMARK    3  A    between atoms: O_6  and  C_7
REMARK    4  A    between atoms: C_7  and  C_8
REMARK    5  A    between atoms: CA_10  and  C_21
REMARK    6  A    between atoms: CA_14  and  N_15
REMARK    7  A    between atoms: C_16  and  C_18
REMARK    8  A    between atoms: C_18  and  C_19
REMARK    9  A    between atoms: C_21  and  O_22
REMARK                            x       y       z     vdW  Elec       q    Type
REMARK                         _______ _______ _______ _____ _____    ______ ____
ROOT
ATOM      1  C   UNL     1      -1.265   0.617  -1.060  0.00  0.00    +0.169 C 
ATOM      2  S   UNL     1      -1.141   1.777   0.342  0.00  0.00    -0.131 S 
ATOM      3  C   UNL     1       0.691   1.851   0.220  0.00  0.00    +0.107 C 
ATOM      4  C   UNL     1       1.381   0.502   0.407  0.00  0.00    +0.006 C 
ATOM      5  CA  UNL     1       0.830  -0.631  -0.110  0.00  0.00    +0.125 C 
ATOM      6  N   UNL     1      -0.445  -0.524  -0.745  0.00  0.00    -0.249 N 
ATOM      7  C   UNL     1      -1.629  -1.394  -0.941  0.00  0.00    +0.244 C 
ATOM      8  O   UNL     1      -1.851  -2.631  -0.871  0.00  0.00    -0.273 OA
ATOM      9  CA  UNL     1      -2.467  -0.178  -1.200  0.00  0.00    +0.191 C 
ENDROOT
BRANCH   9  10
ATOM     10  N   UNL     1      -3.465   0.031  -0.147  0.00  0.00    -0.301 N 
ATOM     11  C   UNL     1      -4.436   1.083  -0.231  0.00  0.00    +0.228 C 
ATOM     12  O   UNL     1      -4.454   1.854  -1.229  0.00  0.00    -0.275 OA
ATOM     13  H   UNL     1      -3.503  -0.623   0.669  0.00  0.00    +0.150 HD
BRANCH  11  14
ATOM     14  C   UNL     1      -5.457   1.250   0.849  0.00  0.00    +0.214 C 
BRANCH  14  15
ATOM     15  C   UNL     1      -6.562   0.311   0.638  0.00  0.00    +0.072 C 
ATOM     16  N   UNL     1      -7.434  -0.431   0.472  0.00  0.00    -0.196 NA
ENDBRANCH  14  15
ENDBRANCH  11  14
ENDBRANCH   9  10
BRANCH   5  17
ATOM     17  C   UNL     1       1.438  -1.980  -0.010  0.00  0.00    +0.351 C 
ATOM     18  OXT UNL     1       2.231  -2.280   0.922  0.00  0.00    -0.244 OA
BRANCH  17  19
ATOM     19  O   UNL     1       1.097  -2.951  -0.947  0.00  0.00    -0.476 OA
ATOM     20  H   UNL     1       1.486  -3.885  -0.895  0.00  0.00    +0.295 HD
ENDBRANCH  17  19
ENDBRANCH   5  17
BRANCH   4  21
ATOM     21  C   UNL     1       2.741   0.513   1.068  0.00  0.00    +0.266 C 
BRANCH  21  22
ATOM     22  O   UNL     1       3.727   0.040   0.155  0.00  0.00    -0.460 OA
BRANCH  22  23
ATOM     23  C   UNL     1       5.074  -0.093   0.501  0.00  0.00    +0.304 C 
ATOM     24  C   UNL     1       6.040  -0.628  -0.501  0.00  0.00    +0.136 C 
ATOM     25  O   UNL     1       5.473   0.191   1.663  0.00  0.00    -0.251 OA
ENDBRANCH  22  23
ENDBRANCH  21  22
ENDBRANCH   4  21
TORSDOF 8
