REMARK  Name = 
REMARK  9 active torsions:
REMARK  status: ('A' for Active; 'I' for Inactive)
REMARK    1  A    between atoms: C_4  and  C_5
REMARK    2  A    between atoms: C_5  and  S_6
REMARK    3  A    between atoms: S_6  and  C_7
REMARK    4  A    between atoms: C_10  and  C_11
REMARK    5  A    between atoms: CA_13  and  C_27
REMARK    6  A    between atoms: CA_17  and  N_18
REMARK    7  A    between atoms: C_19  and  C_21
REMARK    8  A    between atoms: C_21  and  N_22
REMARK    9  A    between atoms: C_27  and  O_28
REMARK                            x       y       z     vdW  Elec       q    Type
REMARK                         _______ _______ _______ _____ _____    ______ ____
ROOT
ATOM      1  C   UNL     1      -1.486   1.492   0.100  0.00  0.00    +0.169 C 
ATOM      2  S   UNL     1      -1.155   0.456   1.565  0.00  0.00    -0.131 S 
ATOM      3  C   UNL     1       0.618   0.934   1.590  0.00  0.00    +0.104 C 
ATOM      4  C   UNL     1       1.381   0.545   0.326  0.00  0.00    -0.021 C 
ATOM      5  CA  UNL     1       0.787   0.657  -0.896  0.00  0.00    +0.123 C 
ATOM      6  N   UNL     1      -0.584   1.063  -0.937  0.00  0.00    -0.249 N 
ATOM      7  C   UNL     1      -1.752   0.835  -1.820  0.00  0.00    +0.244 C 
ATOM      8  O   UNL     1      -1.914   0.441  -3.004  0.00  0.00    -0.273 OA
ATOM      9  CA  UNL     1      -2.665   1.221  -0.696  0.00  0.00    +0.191 C 
ENDROOT
BRANCH   9  10
ATOM     10  N   UNL     1      -3.472   0.088  -0.234  0.00  0.00    -0.300 N 
ATOM     11  C   UNL     1      -4.429   0.231   0.825  0.00  0.00    +0.235 C 
ATOM     12  O   UNL     1      -4.552   1.333   1.425  0.00  0.00    -0.274 OA
ATOM     13  H   UNL     1      -3.401  -0.833  -0.726  0.00  0.00    +0.150 HD
BRANCH  11  14
ATOM     14  C   UNL     1      -5.317  -0.914   1.204  0.00  0.00    +0.242 C 
BRANCH  14  15
ATOM     15  N   UNL     1      -6.635  -0.736   0.610  0.00  0.00    -0.223 N 
ATOM     16  C   UNL     1      -7.688  -0.082   1.125  0.00  0.00    +0.245 A 
ATOM     17  N   UNL     1      -8.695  -0.077   0.233  0.00  0.00    -0.117 NA
ATOM     18  N   UNL     1      -8.229  -0.728  -0.826  0.00  0.00    -0.023 NA
ATOM     19  N   UNL     1      -6.983  -1.121  -0.604  0.00  0.00    -0.044 NA
ENDBRANCH  14  15
ENDBRANCH  11  14
ENDBRANCH   9  10
BRANCH   5  20
ATOM     20  C   UNL     1       1.443   0.318  -2.184  0.00  0.00    +0.351 C 
ATOM     21  OXT UNL     1       1.025   0.849  -3.247  0.00  0.00    -0.244 OA
BRANCH  20  22
ATOM     22  O   UNL     1       2.482  -0.604  -2.255  0.00  0.00    -0.476 OA
ATOM     23  H   UNL     1       2.906  -0.846  -3.142  0.00  0.00    +0.295 HD
ENDBRANCH  20  22
ENDBRANCH   5  20
BRANCH   4  24
ATOM     24  C   UNL     1       2.829   0.141   0.502  0.00  0.00    +0.110 C 
BRANCH  24  25
ATOM     25  S   UNL     1       3.941   1.402  -0.212  0.00  0.00    -0.093 S 
BRANCH  25  26
ATOM     26  C   UNL     1       5.416   0.451   0.132  0.00  0.00    +0.159 A 
ATOM     27  N   UNL     1       6.110   0.536   1.286  0.00  0.00    -0.135 NA
ATOM     28  N   UNL     1       7.162  -0.281   1.324  0.00  0.00    -0.146 NA
ATOM     29  C   UNL     1       7.313  -1.008   0.195  0.00  0.00    +0.100 A 
ATOM     30  C   UNL     1       8.361  -2.054   0.022  0.00  0.00    +0.075 C 
ATOM     31  S   UNL     1       6.097  -0.671  -0.922  0.00  0.00    -0.044 S 
ENDBRANCH  25  26
ENDBRANCH  24  25
ENDBRANCH   4  24
TORSDOF 8
