REMARK  Name = 
REMARK  10 active torsions:
REMARK  status: ('A' for Active; 'I' for Inactive)
REMARK    1  A    between atoms: C_4  and  C_5
REMARK    2  A    between atoms: C_6  and  C_7
REMARK    3  A    between atoms: C_8  and  C_9
REMARK    4  A    between atoms: CA_13  and  C_31
REMARK    5  A    between atoms: CA_17  and  N_18
REMARK    6  A    between atoms: C_19  and  C_21
REMARK    7  A    between atoms: C_21  and  C_25
REMARK    8  A    between atoms: N_22  and  O_23
REMARK    9  A    between atoms: O_23  and  C_24
REMARK   10  A    between atoms: C_31  and  O_32
REMARK                            x       y       z     vdW  Elec       q    Type
REMARK                         _______ _______ _______ _____ _____    ______ ____
ROOT
ATOM      1  C   UNL     1      -0.103   0.853   1.301  0.00  0.00    +0.169 C 
ATOM      2  S   UNL     1      -0.491   1.611  -0.317  0.00  0.00    -0.131 S 
ATOM      3  C   UNL     1      -2.026   2.379   0.336  0.00  0.00    +0.108 C 
ATOM      4  C   UNL     1      -3.056   1.372   0.835  0.00  0.00    -0.009 C 
ATOM      5  CA  UNL     1      -2.655   0.313   1.590  0.00  0.00    +0.126 C 
ATOM      6  N   UNL     1      -1.251   0.089   1.727  0.00  0.00    -0.249 N 
ATOM      7  C   UNL     1      -0.364  -1.084   1.915  0.00  0.00    +0.244 C 
ATOM      8  O   UNL     1      -0.518  -2.268   2.317  0.00  0.00    -0.273 OA
ATOM      9  CA  UNL     1       0.781  -0.296   1.355  0.00  0.00    +0.191 C 
ENDROOT
BRANCH   9  10
ATOM     10  N   UNL     1       1.191  -0.843   0.058  0.00  0.00    -0.296 N 
ATOM     11  C   UNL     1       2.228  -1.833   0.037  0.00  0.00    +0.268 C 
ATOM     12  O   UNL     1       1.901  -3.053  -0.059  0.00  0.00    -0.268 OA
ATOM     13  H   UNL     1       0.455  -0.951  -0.686  0.00  0.00    +0.150 HD
BRANCH  11  14
ATOM     14  C   UNL     1       3.665  -1.465   0.186  0.00  0.00    +0.190 C 
ATOM     15  N   UNL     1       4.079  -0.225   0.132  0.00  0.00    -0.078 NA
BRANCH  14  16
ATOM     16  C   UNL     1       4.694  -2.521   0.313  0.00  0.00    +0.107 A 
ATOM     17  C   UNL     1       4.492  -3.731   0.990  0.00  0.00    +0.078 A 
ATOM     18  S   UNL     1       5.893  -4.649   0.855  0.00  0.00    -0.060 S 
ATOM     19  C   UNL     1       6.700  -3.463  -0.023  0.00  0.00    +0.156 A 
ATOM     20  N   UNL     1       8.051  -3.584  -0.458  0.00  0.00    -0.338 N 
ATOM     21  N   UNL     1       5.940  -2.368  -0.225  0.00  0.00    -0.223 NA
ATOM     22  H   UNL     1       8.643  -2.737  -0.640  0.00  0.00    +0.144 HD
ATOM     23  H   UNL     1       8.460  -4.540  -0.574  0.00  0.00    +0.144 HD
ENDBRANCH  14  16
BRANCH  15  24
ATOM     24  O   UNL     1       3.237   0.854  -0.003  0.00  0.00    -0.396 OA
ATOM     25  C   UNL     1       3.751   2.173   0.031  0.00  0.00    +0.313 C 
ENDBRANCH  15  24
ENDBRANCH  11  14
ENDBRANCH   9  10
BRANCH   4  26
ATOM     26  C   UNL     1      -4.488   1.731   0.725  0.00  0.00    +0.007 C 
ATOM     27  C   UNL     1      -5.110   2.086  -0.414  0.00  0.00    +0.017 C 
BRANCH  27  28
ATOM     28  C   UNL     1      -4.496   2.081  -1.756  0.00  0.00    +0.035 A 
ATOM     29  C   UNL     1      -3.901   1.008  -2.445  0.00  0.00    +0.053 A 
ATOM     30  C   UNL     1      -3.791  -0.391  -1.920  0.00  0.00    +0.067 C 
ATOM     31  N   UNL     1      -3.523   1.297  -3.724  0.00  0.00    -0.252 NA
ATOM     32  C   UNL     1      -3.823   2.567  -4.077  0.00  0.00    +0.156 A 
ATOM     33  S   UNL     1      -4.588   3.382  -2.817  0.00  0.00    -0.076 S 
ENDBRANCH  27  28
ENDBRANCH   4  26
BRANCH   5  34
ATOM     34  C   UNL     1      -3.570  -0.659   2.244  0.00  0.00    +0.352 C 
ATOM     35  OXT UNL     1      -3.186  -1.229   3.303  0.00  0.00    -0.244 OA
BRANCH  34  36
ATOM     36  O   UNL     1      -4.816  -1.006   1.719  0.00  0.00    -0.476 OA
ATOM     37  H   UNL     1      -5.140  -0.708   0.808  0.00  0.00    +0.295 HD
ENDBRANCH  34  36
ENDBRANCH   5  34
TORSDOF 8
