REMARK  Name = 
REMARK  7 active torsions:
REMARK  status: ('A' for Active; 'I' for Inactive)
REMARK    1  A    between atoms: CB_4  and  CG1_5
REMARK    2  A    between atoms: CA_7  and  C_24
REMARK    3  A    between atoms: CA_11  and  N_12
REMARK    4  A    between atoms: C_13  and  C_15
REMARK    5  A    between atoms: C_15  and  C_18
REMARK    6  A    between atoms: N_16  and  O_17
REMARK    7  A    between atoms: C_24  and  O_25
REMARK                            x       y       z     vdW  Elec       q    Type
REMARK                         _______ _______ _______ _____ _____    ______ ____
ROOT
ATOM      1  N   UNL     1       0.772   0.149  -0.729  0.00  0.00    -0.296 N 
ATOM      2  C   UNL     1       2.012  -0.081  -0.045  0.00  0.00    +0.268 C 
ATOM      3  O   UNL     1       2.422  -1.259   0.141  0.00  0.00    -0.268 OA
ATOM      4  H   UNL     1       0.474   1.137  -0.901  0.00  0.00    +0.150 HD
ENDROOT
BRANCH   1  13
ATOM      5  C   UNL     1      -0.812  -1.726  -0.584  0.00  0.00    +0.169 C 
ATOM      6  S   UNL     1      -0.816  -1.438   1.237  0.00  0.00    -0.131 S 
ATOM      7  CG2 UNL     1      -2.256  -0.298   1.367  0.00  0.00    +0.108 C 
ATOM      8  CB  UNL     1      -3.483  -0.763   0.595  0.00  0.00    -0.010 C 
ATOM      9  CA  UNL     1      -3.333  -1.061  -0.712  0.00  0.00    +0.126 C 
ATOM     10  N   UNL     1      -2.004  -1.196  -1.197  0.00  0.00    -0.249 N 
ATOM     11  C   UNL     1      -1.150  -0.440  -2.139  0.00  0.00    +0.244 C 
ATOM     12  O   UNL     1      -1.362   0.340  -3.104  0.00  0.00    -0.273 OA
ATOM     13  CA  UNL     1       0.070  -0.937  -1.419  0.00  0.00    +0.191 C 
BRANCH   8  14
ATOM     14  CG1 UNL     1      -4.811  -0.850   1.256  0.00  0.00    -0.001 C 
ATOM     15  CD1 UNL     1      -5.178  -0.070   2.274  0.00  0.00    +0.009 C 
ENDBRANCH   8  14
BRANCH   9  16
ATOM     16  C   UNL     1      -4.453  -1.271  -1.657  0.00  0.00    +0.352 C 
ATOM     17  OXT UNL     1      -4.327  -2.118  -2.580  0.00  0.00    -0.244 OA
BRANCH  16  18
ATOM     18  O   UNL     1      -5.617  -0.507  -1.596  0.00  0.00    -0.476 OA
ATOM     19  H   UNL     1      -5.708   0.282  -0.967  0.00  0.00    +0.295 HD
ENDBRANCH  16  18
ENDBRANCH   9  16
ENDBRANCH   1  13
BRANCH   2  20
ATOM     20  C   UNL     1       2.853   1.057   0.388  0.00  0.00    +0.190 C 
ATOM     21  N   UNL     1       2.374   2.025   1.116  0.00  0.00    -0.080 NA
BRANCH  20  22
ATOM     22  C   UNL     1       4.275   1.126  -0.015  0.00  0.00    +0.107 A 
ATOM     23  C   UNL     1       4.880   0.244  -0.918  0.00  0.00    +0.078 A 
ATOM     24  S   UNL     1       6.491   0.694  -1.096  0.00  0.00    -0.060 S 
ATOM     25  C   UNL     1       6.347   1.982  -0.033  0.00  0.00    +0.156 A 
ATOM     26  N   UNL     1       7.413   2.863   0.309  0.00  0.00    -0.338 N 
ATOM     27  N   UNL     1       5.100   2.094   0.469  0.00  0.00    -0.223 NA
ATOM     28  H   UNL     1       7.259   3.654   0.971  0.00  0.00    +0.144 HD
ATOM     29  H   UNL     1       7.255   3.654   0.973  0.00  0.00    +0.144 HD
ENDBRANCH  20  22
BRANCH  21  30
ATOM     30  O   UNL     1       1.095   2.068   1.633  0.00  0.00    -0.409 OA
ATOM     31  H   UNL     1       0.458   1.287   1.579  0.00  0.00    +0.328 HD
ENDBRANCH  21  30
ENDBRANCH   2  20
TORSDOF 7
