REMARK  Name = 
REMARK  9 active torsions:
REMARK  status: ('A' for Active; 'I' for Inactive)
REMARK    1  A    between atoms: C_1  and  O_2
REMARK    2  A    between atoms: O_2  and  N_3
REMARK    3  A    between atoms: C_4  and  C_5
REMARK    4  A    between atoms: C_4  and  C_27
REMARK    5  A    between atoms: N_7  and  CA_8
REMARK    6  A    between atoms: C_15  and  C_16
REMARK    7  A    between atoms: C_16  and  N_17
REMARK    8  A    between atoms: N_17  and  C_18
REMARK    9  A    between atoms: CA_23  and  C_24
REMARK                            x       y       z     vdW  Elec       q    Type
REMARK                         _______ _______ _______ _____ _____    ______ ____
ROOT
ATOM      1  CA  UNL     1       1.831   1.603   0.435  0.00  0.00    +0.191 C 
ATOM      2  C   UNL     1       1.076   1.617   1.730  0.00  0.00    +0.244 C 
ATOM      3  O   UNL     1       1.368   1.851   2.932  0.00  0.00    -0.273 OA
ATOM      4  N   UNL     1      -0.144   1.190   1.010  0.00  0.00    -0.249 N 
ATOM      5  C   UNL     1       0.588   1.271  -0.226  0.00  0.00    +0.169 C 
ATOM      6  S   UNL     1       0.436  -0.346  -1.049  0.00  0.00    -0.131 S 
ATOM      7  C   UNL     1      -1.400  -0.275  -1.004  0.00  0.00    +0.102 C 
ATOM      8  C   UNL     1      -1.991  -0.203   0.404  0.00  0.00    -0.047 C 
ATOM      9  CA  UNL     1      -1.381   0.568   1.355  0.00  0.00    +0.125 C 
ENDROOT
BRANCH   1  12
ATOM     10  C   UNL     1       3.927   0.548  -0.525  0.00  0.00    +0.268 C 
ATOM     11  O   UNL     1       4.078   1.529  -1.306  0.00  0.00    -0.268 OA
ATOM     12  N   UNL     1       2.840   0.539   0.410  0.00  0.00    -0.296 N 
ATOM     13  H   UNL     1       2.777  -0.237   1.108  0.00  0.00    +0.150 HD
BRANCH  10  15
ATOM     14  N   UNL     1       4.530  -1.799  -0.504  0.00  0.00    -0.078 NA
ATOM     15  C   UNL     1       4.913  -0.558  -0.551  0.00  0.00    +0.190 C 
BRANCH  15  16
ATOM     16  C   UNL     1       6.359  -0.254  -0.634  0.00  0.00    +0.107 A 
ATOM     17  C   UNL     1       7.353  -1.238  -0.656  0.00  0.00    +0.078 A 
ATOM     18  S   UNL     1       8.851  -0.472  -0.711  0.00  0.00    -0.060 S 
ATOM     19  C   UNL     1       8.173   1.063  -0.710  0.00  0.00    +0.156 A 
ATOM     20  N   UNL     1       8.920   2.274  -0.738  0.00  0.00    -0.338 N 
ATOM     21  N   UNL     1       6.825   1.026  -0.661  0.00  0.00    -0.223 NA
ATOM     22  H   UNL     1       8.427   3.194  -0.702  0.00  0.00    +0.144 HD
ATOM     23  H   UNL     1       9.963   2.253  -0.755  0.00  0.00    +0.144 HD
ENDBRANCH  15  16
BRANCH  14  25
ATOM     24  C   UNL     1       2.837  -3.534  -0.421  0.00  0.00    +0.313 C 
ATOM     25  O   UNL     1       3.203  -2.166  -0.467  0.00  0.00    -0.396 OA
ENDBRANCH  14  25
ENDBRANCH  10  15
ENDBRANCH   1  12
BRANCH   9  26
ATOM     26  C   UNL     1      -1.792   0.709   2.773  0.00  0.00    +0.401 C 
ATOM     27  O   UNL     1      -3.113   0.600   3.163  0.00  0.00    -0.239 OA
ATOM     28  OXT UNL     1      -2.993   0.615   3.157  0.00  0.00    -0.239 OA
ENDBRANCH   9  26
BRANCH   8  29
ATOM     29  C   UNL     1      -3.224  -1.062   0.684  0.00  0.00    -0.041 C 
BRANCH  29  30
ATOM     30  N   UNL     1      -4.554  -0.470   0.299  0.00  0.00    +0.381 N 
ATOM     31  C   UNL     1      -5.608  -1.175   1.079  0.00  0.00    -0.091 C 
ATOM     32  C   UNL     1      -4.833  -0.647  -1.145  0.00  0.00    -0.075 C 
ATOM     33  C   UNL     1      -5.805   0.449  -1.569  0.00  0.00    -0.020 C 
ATOM     34  C   UNL     1      -5.720   1.511  -0.487  0.00  0.00    -0.020 C 
ATOM     35  C   UNL     1      -4.692   0.993   0.516  0.00  0.00    -0.075 C 
ENDBRANCH  29  30
ENDBRANCH   8  29
TORSDOF 7
