REMARK  Name = 
REMARK  10 active torsions:
REMARK  status: ('A' for Active; 'I' for Inactive)
REMARK    1  A    between atoms: CB_4  and  CG1_5
REMARK    2  A    between atoms: CA_7  and  C_28
REMARK    3  A    between atoms: CA_11  and  N_12
REMARK    4  A    between atoms: C_13  and  C_15
REMARK    5  A    between atoms: C_15  and  C_22
REMARK    6  A    between atoms: N_16  and  O_17
REMARK    7  A    between atoms: O_17  and  C_18
REMARK    8  A    between atoms: C_18  and  C_19
REMARK    9  A    between atoms: C_19  and  O_20
REMARK   10  A    between atoms: C_28  and  O_29
REMARK                            x       y       z     vdW  Elec       q    Type
REMARK                         _______ _______ _______ _____ _____    ______ ____
ROOT
ATOM      1  N   UNL     1      -0.458  -0.193   1.282  0.00  0.00    -0.296 N 
ATOM      2  C   UNL     1      -1.705   0.419   0.925  0.00  0.00    +0.268 C 
ATOM      3  O   UNL     1      -1.998   1.562   1.370  0.00  0.00    -0.268 OA
ATOM      4  H   UNL     1      -0.431  -1.238   1.274  0.00  0.00    +0.150 HD
ENDROOT
BRANCH   1  13
ATOM      5  C   UNL     1       1.961  -0.000   1.730  0.00  0.00    +0.169 C 
ATOM      6  S   UNL     1       2.174  -1.549   0.788  0.00  0.00    -0.131 S 
ATOM      7  CG2 UNL     1       3.947  -1.206   0.444  0.00  0.00    +0.108 C 
ATOM      8  CB  UNL     1       4.188   0.089  -0.329  0.00  0.00    -0.010 C 
ATOM      9  CA  UNL     1       3.453   1.196  -0.054  0.00  0.00    +0.126 C 
ATOM     10  N   UNL     1       2.371   1.078   0.871  0.00  0.00    -0.249 N 
ATOM     11  C   UNL     1       1.068   1.736   1.117  0.00  0.00    +0.244 C 
ATOM     12  O   UNL     1       0.540   2.824   0.771  0.00  0.00    -0.273 OA
ATOM     13  CA  UNL     1       0.630   0.549   1.930  0.00  0.00    +0.191 C 
BRANCH   8  14
ATOM     14  CG1 UNL     1       5.232   0.110  -1.388  0.00  0.00    -0.001 C 
ATOM     15  CD1 UNL     1       6.328  -0.645  -1.339  0.00  0.00    +0.009 C 
ENDBRANCH   8  14
BRANCH   9  16
ATOM     16  C   UNL     1       3.677   2.500  -0.718  0.00  0.00    +0.352 C 
ATOM     17  OXT UNL     1       2.693   3.156  -1.150  0.00  0.00    -0.244 OA
BRANCH  16  18
ATOM     18  O   UNL     1       4.955   3.042  -0.835  0.00  0.00    -0.476 OA
ATOM     19  H   UNL     1       5.763   2.596  -0.418  0.00  0.00    +0.295 HD
ENDBRANCH  16  18
ENDBRANCH   9  16
ENDBRANCH   1  13
BRANCH   2  20
ATOM     20  C   UNL     1      -2.660  -0.302   0.050  0.00  0.00    +0.190 C 
ATOM     21  N   UNL     1      -3.941  -0.227   0.255  0.00  0.00    -0.077 NA
BRANCH  20  22
ATOM     22  C   UNL     1      -2.176  -1.145  -1.065  0.00  0.00    +0.107 A 
ATOM     23  C   UNL     1      -0.902  -1.035  -1.633  0.00  0.00    +0.078 A 
ATOM     24  S   UNL     1      -0.783  -2.157  -2.882  0.00  0.00    -0.060 S 
ATOM     25  C   UNL     1      -2.347  -2.720  -2.651  0.00  0.00    +0.156 A 
ATOM     26  N   UNL     1      -2.957  -3.747  -3.427  0.00  0.00    -0.338 N 
ATOM     27  N   UNL     1      -2.978  -2.080  -1.645  0.00  0.00    -0.223 NA
ATOM     28  H   UNL     1      -2.425  -4.214  -4.194  0.00  0.00    +0.144 HD
ATOM     29  H   UNL     1      -3.941  -4.038  -3.236  0.00  0.00    +0.144 HD
ENDBRANCH  20  22
BRANCH  21  30
ATOM     30  O   UNL     1      -4.486   0.516   1.279  0.00  0.00    -0.382 OA
BRANCH  30  31
ATOM     31  C   UNL     1      -5.887   0.513   1.504  0.00  0.00    +0.382 C 
BRANCH  31  32
ATOM     32  C   UNL     1      -6.223   1.459   2.609  0.00  0.00    +0.345 C 
ATOM     33  O   UNL     1      -5.529   1.477   3.660  0.00  0.00    -0.247 OA
BRANCH  32  34
ATOM     34  O   UNL     1      -7.325   2.300   2.488  0.00  0.00    -0.478 OA
ATOM     35  H   UNL     1      -7.573   2.941   3.233  0.00  0.00    +0.295 HD
ENDBRANCH  32  34
ENDBRANCH  31  32
ENDBRANCH  30  31
ENDBRANCH  21  30
ENDBRANCH   2  20
TORSDOF 10
