REMARK  Name = 
REMARK  11 active torsions:
REMARK  status: ('A' for Active; 'I' for Inactive)
REMARK    1  A    between atoms: C_4  and  C_5
REMARK    2  A    between atoms: C_5  and  S_6
REMARK    3  A    between atoms: S_6  and  C_7
REMARK    4  A    between atoms: N_11  and  C_12
REMARK    5  A    between atoms: CA_13  and  C_31
REMARK    6  A    between atoms: CA_17  and  N_18
REMARK    7  A    between atoms: C_19  and  C_21
REMARK    8  A    between atoms: C_21  and  C_25
REMARK    9  A    between atoms: N_22  and  O_23
REMARK   10  A    between atoms: O_23  and  C_24
REMARK   11  A    between atoms: C_31  and  O_32
REMARK                            x       y       z     vdW  Elec       q    Type
REMARK                         _______ _______ _______ _____ _____    ______ ____
ROOT
ATOM      1  C   UNL     1      -0.147  -2.871   0.760  0.00  0.00    +0.169 C 
ATOM      2  S   UNL     1       0.705  -2.415  -0.814  0.00  0.00    -0.131 S 
ATOM      3  C   UNL     1       1.802  -1.095  -0.150  0.00  0.00    +0.104 C 
ATOM      4  C   UNL     1       2.612  -1.543   1.057  0.00  0.00    -0.021 C 
ATOM      5  CA  UNL     1       1.941  -2.078   2.107  0.00  0.00    +0.123 C 
ATOM      6  N   UNL     1       0.557  -2.340   1.901  0.00  0.00    -0.249 N 
ATOM      7  C   UNL     1      -0.706  -1.714   2.354  0.00  0.00    +0.244 C 
ATOM      8  O   UNL     1      -1.046  -1.003   3.335  0.00  0.00    -0.273 OA
ATOM      9  CA  UNL     1      -1.393  -2.225   1.124  0.00  0.00    +0.191 C 
ENDROOT
BRANCH   9  10
ATOM     10  N   UNL     1      -1.821  -1.115   0.265  0.00  0.00    -0.296 N 
ATOM     11  C   UNL     1      -3.184  -0.663   0.239  0.00  0.00    +0.268 C 
ATOM     12  O   UNL     1      -4.077  -1.305   0.856  0.00  0.00    -0.268 OA
ATOM     13  H   UNL     1      -1.118  -0.549  -0.256  0.00  0.00    +0.150 HD
BRANCH  11  14
ATOM     14  C   UNL     1      -3.556   0.552  -0.520  0.00  0.00    +0.190 C 
ATOM     15  N   UNL     1      -2.880   1.654  -0.383  0.00  0.00    -0.078 NA
BRANCH  14  16
ATOM     16  C   UNL     1      -4.717   0.546  -1.436  0.00  0.00    +0.107 A 
ATOM     17  C   UNL     1      -5.418  -0.606  -1.808  0.00  0.00    +0.078 A 
ATOM     18  S   UNL     1      -6.635  -0.161  -2.881  0.00  0.00    -0.060 S 
ATOM     19  C   UNL     1      -6.217   1.463  -2.830  0.00  0.00    +0.156 A 
ATOM     20  N   UNL     1      -6.874   2.490  -3.567  0.00  0.00    -0.338 N 
ATOM     21  N   UNL     1      -5.167   1.694  -2.016  0.00  0.00    -0.223 NA
ATOM     22  H   UNL     1      -7.679   2.259  -4.190  0.00  0.00    +0.144 HD
ATOM     23  H   UNL     1      -6.536   3.477  -3.515  0.00  0.00    +0.144 HD
ENDBRANCH  14  16
BRANCH  15  24
ATOM     24  O   UNL     1      -1.813   1.766   0.483  0.00  0.00    -0.396 OA
ATOM     25  C   UNL     1      -1.097   2.984   0.584  0.00  0.00    +0.313 C 
ENDBRANCH  15  24
ENDBRANCH  11  14
ENDBRANCH   9  10
BRANCH   5  26
ATOM     26  C   UNL     1       2.535  -2.499   3.400  0.00  0.00    +0.351 C 
ATOM     27  OXT UNL     1       1.802  -3.074   4.250  0.00  0.00    -0.244 OA
BRANCH  26  28
ATOM     28  O   UNL     1       3.877  -2.295   3.703  0.00  0.00    -0.476 OA
ATOM     29  H   UNL     1       4.275  -2.633   4.571  0.00  0.00    +0.295 HD
ENDBRANCH  26  28
ENDBRANCH   5  26
BRANCH   4  30
ATOM     30  C   UNL     1       4.108  -1.317   1.033  0.00  0.00    +0.111 C 
BRANCH  30  31
ATOM     31  S   UNL     1       4.604   0.117   2.058  0.00  0.00    -0.080 S 
BRANCH  31  32
ATOM     32  C   UNL     1       3.839   1.354   1.008  0.00  0.00    +0.209 A 
ATOM     33  N   UNL     1       2.608   1.858   1.206  0.00  0.00    -0.102 NA
ATOM     34  N   UNL     1       2.446   2.752   0.238  0.00  0.00    -0.022 NA
ATOM     35  N   UNL     1       3.531   2.806  -0.520  0.00  0.00    -0.043 NA
ATOM     36  N   UNL     1       4.412   1.940  -0.054  0.00  0.00    -0.223 N 
ATOM     37  C   UNL     1       5.751   1.733  -0.588  0.00  0.00    +0.177 C 
ENDBRANCH  31  32
ENDBRANCH  30  31
ENDBRANCH   4  30
TORSDOF 9
