REMARK  Name = 
REMARK  13 active torsions:
REMARK  status: ('A' for Active; 'I' for Inactive)
REMARK    1  A    between atoms: C_4  and  C_5
REMARK    2  A    between atoms: C_5  and  S_6
REMARK    3  A    between atoms: S_6  and  C_7
REMARK    4  A    between atoms: N_11  and  C_12
REMARK    5  A    between atoms: C_13  and  C_28
REMARK    6  A    between atoms: C_17  and  N_18
REMARK    7  A    between atoms: C_17  and  O_26
REMARK    8  A    between atoms: C_19  and  C_21
REMARK    9  A    between atoms: C_21  and  S_22
REMARK   10  A    between atoms: S_22  and  C_23
REMARK   11  A    between atoms: C_23  and  C_24
REMARK   12  A    between atoms: O_26  and  C_27
REMARK   13  A    between atoms: C_28  and  O_29
REMARK                            x       y       z     vdW  Elec       q    Type
REMARK                         _______ _______ _______ _____ _____    ______ ____
ROOT
ATOM      1  C   UNL     1      -0.672  -1.116   1.761  0.00  0.00    +0.199 C 
ATOM      2  S   UNL     1      -0.186  -2.410   0.571  0.00  0.00    -0.128 S 
ATOM      3  C   UNL     1       1.587  -2.259   1.026  0.00  0.00    +0.104 C 
ATOM      4  C   UNL     1       2.167  -0.878   0.737  0.00  0.00    -0.021 C 
ATOM      5  C   UNL     1       1.445   0.238   1.031  0.00  0.00    +0.123 C 
ATOM      6  N   UNL     1       0.087   0.067   1.448  0.00  0.00    -0.244 N 
ATOM      7  C   UNL     1      -1.180   0.837   1.417  0.00  0.00    +0.275 C 
ATOM      8  O   UNL     1      -1.484   2.048   1.255  0.00  0.00    -0.270 OA
ATOM      9  C   UNL     1      -1.956  -0.435   1.617  0.00  0.00    +0.242 C 
ENDROOT
BRANCH   9  10
ATOM     10  N   UNL     1      -2.765  -0.751   0.426  0.00  0.00    -0.277 N 
ATOM     11  C   UNL     1      -3.877   0.066   0.021  0.00  0.00    +0.225 C 
ATOM     12  O   UNL     1      -4.246   1.036   0.738  0.00  0.00    -0.275 OA
ATOM     13  H   UNL     1      -2.606  -1.637  -0.101  0.00  0.00    +0.152 HD
BRANCH  11  14
ATOM     14  C   UNL     1      -4.630  -0.250  -1.236  0.00  0.00    +0.165 C 
BRANCH  14  15
ATOM     15  S   UNL     1      -4.626   1.198  -2.359  0.00  0.00    -0.137 S 
BRANCH  15  16
ATOM     16  C   UNL     1      -6.233   1.887  -1.823  0.00  0.00    +0.187 C 
BRANCH  16  17
ATOM     17  C   UNL     1      -7.327   1.191  -2.505  0.00  0.00    +0.073 C 
ATOM     18  N   UNL     1      -8.192   0.644  -3.045  0.00  0.00    -0.196 NA
ENDBRANCH  16  17
ENDBRANCH  15  16
ENDBRANCH  14  15
ENDBRANCH  11  14
ENDBRANCH   9  10
BRANCH   9  19
ATOM     19  O   UNL     1      -2.713  -0.372   2.815  0.00  0.00    -0.349 OA
ATOM     20  C   UNL     1      -3.374  -1.599   3.054  0.00  0.00    +0.197 C 
ENDBRANCH   9  19
BRANCH   5  21
ATOM     21  C   UNL     1       1.954   1.615   0.829  0.00  0.00    +0.351 C 
ATOM     22  O   UNL     1       1.178   2.514   0.409  0.00  0.00    -0.244 OA
BRANCH  21  23
ATOM     23  O   UNL     1       3.268   1.945   1.142  0.00  0.00    -0.476 OA
ATOM     24  H   UNL     1       3.616   2.887   1.002  0.00  0.00    +0.295 HD
ENDBRANCH  21  23
ENDBRANCH   5  21
BRANCH   4  25
ATOM     25  C   UNL     1       3.545  -0.821   0.114  0.00  0.00    +0.111 C 
BRANCH  25  26
ATOM     26  S   UNL     1       3.447  -0.160  -1.584  0.00  0.00    -0.080 S 
BRANCH  26  27
ATOM     27  C   UNL     1       5.205  -0.349  -1.885  0.00  0.00    +0.209 A 
ATOM     28  N   UNL     1       5.775  -1.464  -2.377  0.00  0.00    -0.102 NA
ATOM     29  N   UNL     1       7.074  -1.194  -2.418  0.00  0.00    -0.022 NA
ATOM     30  N   UNL     1       7.300   0.033  -1.971  0.00  0.00    -0.043 NA
ATOM     31  N   UNL     1       6.143   0.582  -1.646  0.00  0.00    -0.223 N 
ATOM     32  C   UNL     1       5.982   1.896  -1.038  0.00  0.00    +0.177 C 
ENDBRANCH  26  27
ENDBRANCH  25  26
ENDBRANCH   4  25
TORSDOF 11
