REMARK  Name = 
REMARK  12 active torsions:
REMARK  status: ('A' for Active; 'I' for Inactive)
REMARK    1  A    between atoms: C_4  and  C_5
REMARK    2  A    between atoms: C_5  and  S_6
REMARK    3  A    between atoms: S_6  and  C_7
REMARK    4  A    between atoms: N_11  and  C_12
REMARK    5  A    between atoms: C_12  and  S_13
REMARK    6  A    between atoms: S_13  and  O_14
REMARK    7  A    between atoms: CA_17  and  C_33
REMARK    8  A    between atoms: CA_21  and  N_22
REMARK    9  A    between atoms: C_23  and  C_25
REMARK   10  A    between atoms: C_25  and  O_26
REMARK   11  A    between atoms: C_25  and  C_27
REMARK   12  A    between atoms: C_33  and  O_34
REMARK                            x       y       z     vdW  Elec       q    Type
REMARK                         _______ _______ _______ _____ _____    ______ ____
ROOT
ATOM      1  C   UNL     1       0.322   1.017  -0.622  0.00  0.00    +0.169 C 
ATOM      2  S   UNL     1       0.227  -0.761  -1.015  0.00  0.00    -0.131 S 
ATOM      3  C   UNL     1      -1.546  -0.855  -0.536  0.00  0.00    +0.104 C 
ATOM      4  C   UNL     1      -1.839  -0.448   0.907  0.00  0.00    -0.021 C 
ATOM      5  CA  UNL     1      -1.132   0.552   1.500  0.00  0.00    +0.123 C 
ATOM      6  N   UNL     1      -0.085   1.167   0.749  0.00  0.00    -0.249 N 
ATOM      7  C   UNL     1       1.218   1.808   1.040  0.00  0.00    +0.244 C 
ATOM      8  O   UNL     1       1.773   2.280   2.066  0.00  0.00    -0.273 OA
ATOM      9  CA  UNL     1       1.624   1.604  -0.388  0.00  0.00    +0.191 C 
ENDROOT
BRANCH   9  10
ATOM     10  N   UNL     1       2.744   0.669  -0.511  0.00  0.00    -0.299 N 
ATOM     11  C   UNL     1       3.451   0.509  -1.749  0.00  0.00    +0.247 C 
ATOM     12  O   UNL     1       3.125   1.193  -2.758  0.00  0.00    -0.273 OA
ATOM     13  H   UNL     1       3.024   0.085   0.310  0.00  0.00    +0.150 HD
BRANCH  11  14
ATOM     14  C   UNL     1       4.595  -0.461  -1.855  0.00  0.00    +0.230 C 
BRANCH  14  15
ATOM     15  C   UNL     1       5.749   0.009  -0.999  0.00  0.00    -0.010 A 
ATOM     16  C   UNL     1       5.915  -0.448   0.325  0.00  0.00    +0.006 A 
ATOM     17  C   UNL     1       6.976   0.025   1.104  0.00  0.00    +0.000 A 
ATOM     18  C   UNL     1       7.865   0.970   0.585  0.00  0.00    +0.000 A 
ATOM     19  C   UNL     1       7.691   1.452  -0.714  0.00  0.00    +0.000 A 
ATOM     20  C   UNL     1       6.638   0.980  -1.503  0.00  0.00    +0.006 A 
ENDBRANCH  14  15
BRANCH  14  21
ATOM     21  O   UNL     1       4.175  -1.743  -1.468  0.00  0.00    -0.378 OA
ATOM     22  H   UNL     1       3.602  -2.092  -2.200  0.00  0.00    +0.211 HD
ENDBRANCH  14  21
ENDBRANCH  11  14
ENDBRANCH   9  10
BRANCH   5  23
ATOM     23  C   UNL     1      -1.341   1.011   2.893  0.00  0.00    +0.351 C 
ATOM     24  OXT UNL     1      -1.059   2.200   3.198  0.00  0.00    -0.244 OA
BRANCH  23  25
ATOM     25  O   UNL     1      -1.793   0.146   3.884  0.00  0.00    -0.476 OA
ATOM     26  H   UNL     1      -1.927   0.470   4.834  0.00  0.00    +0.295 HD
ENDBRANCH  23  25
ENDBRANCH   5  23
BRANCH   4  27
ATOM     27  C   UNL     1      -3.024  -1.121   1.573  0.00  0.00    +0.111 C 
BRANCH  27  28
ATOM     28  S   UNL     1      -4.382   0.053   1.945  0.00  0.00    -0.080 S 
BRANCH  28  29
ATOM     29  C   UNL     1      -4.688   0.496   0.233  0.00  0.00    +0.211 A 
ATOM     30  N   UNL     1      -4.162   1.575  -0.372  0.00  0.00    -0.101 NA
ATOM     31  N   UNL     1      -4.639   1.543  -1.609  0.00  0.00    -0.022 NA
ATOM     32  N   UNL     1      -5.430   0.491  -1.764  0.00  0.00    -0.042 NA
ATOM     33  N   UNL     1      -5.468  -0.180  -0.627  0.00  0.00    -0.196 N 
BRANCH  33  34
ATOM     34  C   UNL     1      -6.282  -1.366  -0.387  0.00  0.00    +0.345 C 
BRANCH  34  35
ATOM     35  S   UNL     1      -7.964  -0.891  -0.036  0.00  0.00    +0.100 S 
ATOM     36  O   UNL     1      -7.996  -0.001   1.173  0.00  0.00    -0.146 OA
ATOM     37  O   UNL     1      -8.787  -2.120   0.233  0.00  0.00    -0.146 OA
BRANCH  35  38
ATOM     38  O   UNL     1      -8.605  -0.061  -1.349  0.00  0.00    -0.252 OA
ATOM     39  H   UNL     1      -8.595  -0.714  -2.094  0.00  0.00    +0.245 HD
ENDBRANCH  35  38
ENDBRANCH  34  35
ENDBRANCH  33  34
ENDBRANCH  28  29
ENDBRANCH  27  28
ENDBRANCH   4  27
TORSDOF 12
