REMARK  Name = 
REMARK  11 active torsions:
REMARK  status: ('A' for Active; 'I' for Inactive)
REMARK    1  A    between atoms: C_4  and  C_5
REMARK    2  A    between atoms: C_5  and  O_6
REMARK    3  A    between atoms: O_6  and  C_7
REMARK    4  A    between atoms: C_7  and  C_8
REMARK    5  A    between atoms: CA_10  and  C_28
REMARK    6  A    between atoms: CA_14  and  N_15
REMARK    7  A    between atoms: C_16  and  C_18
REMARK    8  A    between atoms: C_18  and  C_22
REMARK    9  A    between atoms: N_19  and  O_20
REMARK   10  A    between atoms: O_20  and  C_21
REMARK   11  A    between atoms: C_28  and  O_29
REMARK                            x       y       z     vdW  Elec       q    Type
REMARK                         _______ _______ _______ _____ _____    ______ ____
ROOT
ATOM      1  C   UNL     1       0.643  -0.447   1.528  0.00  0.00    +0.169 C 
ATOM      2  S   UNL     1       0.273  -1.535   0.112  0.00  0.00    -0.131 S 
ATOM      3  C   UNL     1       2.054  -1.828  -0.233  0.00  0.00    +0.107 C 
ATOM      4  C   UNL     1       2.846  -0.561  -0.547  0.00  0.00    +0.006 C 
ATOM      5  CA  UNL     1       2.584   0.598   0.118  0.00  0.00    +0.125 C 
ATOM      6  N   UNL     1       1.498   0.606   1.046  0.00  0.00    -0.249 N 
ATOM      7  C   UNL     1       0.520   1.596   1.555  0.00  0.00    +0.244 C 
ATOM      8  O   UNL     1       0.446   2.852   1.572  0.00  0.00    -0.273 OA
ATOM      9  CA  UNL     1      -0.375   0.475   1.988  0.00  0.00    +0.191 C 
ENDROOT
BRANCH   9  10
ATOM     10  N   UNL     1      -1.627   0.451   1.225  0.00  0.00    -0.296 N 
ATOM     11  C   UNL     1      -2.659  -0.506   1.510  0.00  0.00    +0.268 C 
ATOM     12  O   UNL     1      -2.447  -1.423   2.349  0.00  0.00    -0.268 OA
ATOM     13  H   UNL     1      -1.846   1.247   0.584  0.00  0.00    +0.150 HD
BRANCH  11  14
ATOM     14  C   UNL     1      -3.985  -0.407   0.852  0.00  0.00    +0.190 C 
ATOM     15  N   UNL     1      -5.075  -0.637   1.521  0.00  0.00    -0.078 NA
BRANCH  14  16
ATOM     16  C   UNL     1      -4.109  -0.030  -0.573  0.00  0.00    +0.107 A 
ATOM     17  C   UNL     1      -3.077  -0.148  -1.508  0.00  0.00    +0.078 A 
ATOM     18  S   UNL     1      -3.665   0.339  -3.008  0.00  0.00    -0.060 S 
ATOM     19  C   UNL     1      -5.197   0.669  -2.407  0.00  0.00    +0.156 A 
ATOM     20  N   UNL     1      -6.287   1.147  -3.190  0.00  0.00    -0.338 N 
ATOM     21  N   UNL     1      -5.290   0.418  -1.085  0.00  0.00    -0.223 NA
ATOM     22  H   UNL     1      -7.213   1.329  -2.745  0.00  0.00    +0.144 HD
ATOM     23  H   UNL     1      -6.173   1.294  -4.217  0.00  0.00    +0.144 HD
ENDBRANCH  14  16
BRANCH  15  24
ATOM     24  O   UNL     1      -5.070  -0.972   2.857  0.00  0.00    -0.396 OA
ATOM     25  C   UNL     1      -6.290  -1.187   3.547  0.00  0.00    +0.313 C 
ENDBRANCH  15  24
ENDBRANCH  11  14
ENDBRANCH   9  10
BRANCH   5  26
ATOM     26  C   UNL     1       3.318   1.870  -0.093  0.00  0.00    +0.351 C 
ATOM     27  OXT UNL     1       3.905   2.122  -1.179  0.00  0.00    -0.244 OA
BRANCH  26  28
ATOM     28  O   UNL     1       3.329   2.825   0.920  0.00  0.00    -0.476 OA
ATOM     29  H   UNL     1       3.807   3.709   0.796  0.00  0.00    +0.295 HD
ENDBRANCH  26  28
ENDBRANCH   5  26
BRANCH   4  30
ATOM     30  C   UNL     1       3.996  -0.697  -1.518  0.00  0.00    +0.266 C 
BRANCH  30  31
ATOM     31  O   UNL     1       5.224  -0.401  -0.859  0.00  0.00    -0.460 OA
BRANCH  31  32
ATOM     32  C   UNL     1       6.458  -0.419  -1.515  0.00  0.00    +0.304 C 
ATOM     33  C   UNL     1       7.701  -0.114  -0.751  0.00  0.00    +0.136 C 
ATOM     34  O   UNL     1       6.534  -0.729  -2.735  0.00  0.00    -0.251 OA
ENDBRANCH  31  32
ENDBRANCH  30  31
ENDBRANCH   4  30
TORSDOF 9
