REMARK  Name = 
REMARK  10 active torsions:
REMARK  status: ('A' for Active; 'I' for Inactive)
REMARK    1  A    between atoms: C_4  and  C_5
REMARK    2  A    between atoms: C_5  and  O_6
REMARK    3  A    between atoms: O_6  and  C_7
REMARK    4  A    between atoms: C_10  and  C_26
REMARK    5  A    between atoms: C_14  and  N_15
REMARK    6  A    between atoms: C_14  and  O_24
REMARK    7  A    between atoms: C_16  and  C_18
REMARK    8  A    between atoms: C_18  and  C_19
REMARK    9  A    between atoms: O_24  and  C_25
REMARK   10  A    between atoms: C_26  and  O_27
REMARK                            x       y       z     vdW  Elec       q    Type
REMARK                         _______ _______ _______ _____ _____    ______ ____
ROOT
ATOM      1  C   UNL     1      -0.045  -1.938  -0.926  0.00  0.00    +0.199 C 
ATOM      2  S   UNL     1       0.283  -1.004  -2.486  0.00  0.00    -0.128 S 
ATOM      3  C   UNL     1       1.575   0.136  -1.848  0.00  0.00    +0.107 C 
ATOM      4  C   UNL     1       2.712  -0.601  -1.165  0.00  0.00    +0.006 C 
ATOM      5  C   UNL     1       2.403  -1.439  -0.149  0.00  0.00    +0.125 C 
ATOM      6  N   UNL     1       1.025  -1.748   0.025  0.00  0.00    -0.244 N 
ATOM      7  C   UNL     1       0.019  -1.391   1.047  0.00  0.00    +0.275 C 
ATOM      8  O   UNL     1       0.067  -1.143   2.281  0.00  0.00    -0.270 OA
ATOM      9  C   UNL     1      -1.065  -1.446  -0.010  0.00  0.00    +0.242 C 
ENDROOT
BRANCH   9  10
ATOM     10  N   UNL     1      -1.639  -0.152  -0.437  0.00  0.00    -0.278 N 
ATOM     11  C   UNL     1      -1.697   1.055   0.342  0.00  0.00    +0.220 C 
ATOM     12  O   UNL     1      -1.124   1.139   1.459  0.00  0.00    -0.275 OA
ATOM     13  H   UNL     1      -2.188  -0.165  -1.326  0.00  0.00    +0.152 HD
BRANCH  11  14
ATOM     14  C   UNL     1      -2.495   2.220  -0.154  0.00  0.00    +0.138 C 
BRANCH  14  15
ATOM     15  C   UNL     1      -3.898   2.121   0.346  0.00  0.00    -0.001 A 
ATOM     16  C   UNL     1      -4.929   1.403  -0.247  0.00  0.00    +0.011 A 
ATOM     17  C   UNL     1      -6.117   1.433   0.496  0.00  0.00    +0.008 A 
ATOM     18  C   UNL     1      -6.018   2.160   1.677  0.00  0.00    +0.045 A 
ATOM     19  S   UNL     1      -4.450   2.761   1.799  0.00  0.00    -0.101 S 
ENDBRANCH  14  15
ENDBRANCH  11  14
ENDBRANCH   9  10
BRANCH   9  20
ATOM     20  O   UNL     1      -2.050  -2.437   0.241  0.00  0.00    -0.349 OA
ATOM     21  C   UNL     1      -2.986  -1.993   1.201  0.00  0.00    +0.197 C 
ENDBRANCH   9  20
BRANCH   5  22
ATOM     22  C   UNL     1       3.377  -2.062   0.775  0.00  0.00    +0.351 C 
ATOM     23  O   UNL     1       4.543  -1.606   0.915  0.00  0.00    -0.244 OA
BRANCH  22  24
ATOM     24  O   UNL     1       2.977  -3.150   1.544  0.00  0.00    -0.476 OA
ATOM     25  H   UNL     1       3.612  -3.584   2.202  0.00  0.00    +0.295 HD
ENDBRANCH  22  24
ENDBRANCH   5  22
BRANCH   4  26
ATOM     26  C   UNL     1       4.127  -0.274  -1.569  0.00  0.00    +0.268 C 
BRANCH  26  27
ATOM     27  O   UNL     1       4.639   0.740  -0.710  0.00  0.00    -0.446 OA
BRANCH  27  28
ATOM     28  C   UNL     1       5.944   1.231  -0.812  0.00  0.00    +0.398 C 
ATOM     29  N   UNL     1       6.371   2.283   0.048  0.00  0.00    -0.295 N 
ATOM     30  O   UNL     1       6.748   0.753  -1.656  0.00  0.00    -0.227 OA
ATOM     31  H   UNL     1       5.723   2.704   0.744  0.00  0.00    +0.148 HD
ATOM     32  H   UNL     1       5.706   2.696   0.743  0.00  0.00    +0.148 HD
ENDBRANCH  27  28
ENDBRANCH  26  27
ENDBRANCH   4  26
TORSDOF 9
