REMARK  Name = 
REMARK  13 active torsions:
REMARK  status: ('A' for Active; 'I' for Inactive)
REMARK    1  A    between atoms: C_4  and  C_5
REMARK    2  A    between atoms: C_5  and  S_6
REMARK    3  A    between atoms: S_6  and  C_7
REMARK    4  A    between atoms: N_11  and  C_12
REMARK    5  A    between atoms: C_12  and  C_13
REMARK    6  A    between atoms: C_13  and  N_14
REMARK    7  A    between atoms: N_14  and  C_15
REMARK    8  A    between atoms: N_14  and  C_16
REMARK    9  A    between atoms: CA_17  and  C_32
REMARK   10  A    between atoms: CA_21  and  N_22
REMARK   11  A    between atoms: C_23  and  C_25
REMARK   12  A    between atoms: C_25  and  C_26
REMARK   13  A    between atoms: C_32  and  O_33
REMARK                            x       y       z     vdW  Elec       q    Type
REMARK                         _______ _______ _______ _____ _____    ______ ____
ROOT
ATOM      1  C   UNL     1       2.354   1.139  -1.808  0.00  0.00    +0.169 C 
ATOM      2  S   UNL     1       1.391  -0.432  -1.666  0.00  0.00    -0.131 S 
ATOM      3  C   UNL     1       0.090   0.154  -0.511  0.00  0.00    +0.104 C 
ATOM      4  C   UNL     1      -0.589   1.428  -0.985  0.00  0.00    -0.021 C 
ATOM      5  CA  UNL     1       0.193   2.499  -1.256  0.00  0.00    +0.123 C 
ATOM      6  N   UNL     1       1.596   2.262  -1.309  0.00  0.00    -0.249 N 
ATOM      7  C   UNL     1       2.734   2.597  -0.424  0.00  0.00    +0.244 C 
ATOM      8  O   UNL     1       2.970   3.498   0.422  0.00  0.00    -0.273 OA
ATOM      9  CA  UNL     1       3.451   1.365  -0.890  0.00  0.00    +0.191 C 
ENDROOT
BRANCH   9  10
ATOM     10  N   UNL     1       3.565   0.377   0.186  0.00  0.00    -0.301 N 
ATOM     11  C   UNL     1       4.350  -0.815   0.034  0.00  0.00    +0.220 C 
ATOM     12  O   UNL     1       4.866  -1.098  -1.083  0.00  0.00    -0.275 OA
ATOM     13  H   UNL     1       3.118   0.571   1.113  0.00  0.00    +0.150 HD
BRANCH  11  14
ATOM     14  C   UNL     1       4.583  -1.723   1.204  0.00  0.00    +0.151 C 
BRANCH  14  15
ATOM     15  C   UNL     1       6.007  -1.633   1.662  0.00  0.00    +0.059 A 
ATOM     16  C   UNL     1       6.599  -0.445   2.098  0.00  0.00    +0.072 A 
ATOM     17  S   UNL     1       8.199  -0.777   2.501  0.00  0.00    -0.061 S 
ATOM     18  C   UNL     1       8.058  -2.407   2.114  0.00  0.00    +0.156 A 
ATOM     19  N   UNL     1       9.115  -3.356   2.223  0.00  0.00    -0.338 N 
ATOM     20  N   UNL     1       6.822  -2.723   1.676  0.00  0.00    -0.230 NA
ATOM     21  H   UNL     1       8.946  -4.360   1.988  0.00  0.00    +0.144 HD
ATOM     22  H   UNL     1      10.068  -3.050   2.514  0.00  0.00    +0.144 HD
ENDBRANCH  14  15
ENDBRANCH  11  14
ENDBRANCH   9  10
BRANCH   5  23
ATOM     23  C   UNL     1      -0.290   3.868  -1.555  0.00  0.00    +0.351 C 
ATOM     24  OXT UNL     1       0.508   4.701  -2.063  0.00  0.00    -0.244 OA
BRANCH  23  25
ATOM     25  O   UNL     1      -1.587   4.275  -1.254  0.00  0.00    -0.476 OA
ATOM     26  H   UNL     1      -1.896   5.220  -1.450  0.00  0.00    +0.295 HD
ENDBRANCH  23  25
ENDBRANCH   5  23
BRANCH   4  27
ATOM     27  C   UNL     1      -2.097   1.443  -1.085  0.00  0.00    +0.111 C 
BRANCH  27  28
ATOM     28  S   UNL     1      -2.859   2.066   0.458  0.00  0.00    -0.080 S 
BRANCH  28  29
ATOM     29  C   UNL     1      -2.817   0.490   1.320  0.00  0.00    +0.210 A 
ATOM     30  N   UNL     1      -1.803   0.086   2.104  0.00  0.00    -0.102 NA
ATOM     31  N   UNL     1      -2.166  -1.112   2.545  0.00  0.00    -0.022 NA
ATOM     32  N   UNL     1      -3.359  -1.432   2.065  0.00  0.00    -0.043 NA
ATOM     33  N   UNL     1      -3.787  -0.442   1.303  0.00  0.00    -0.219 N 
BRANCH  33  34
ATOM     34  C   UNL     1      -5.064  -0.431   0.591  0.00  0.00    +0.163 C 
BRANCH  34  35
ATOM     35  C   UNL     1      -5.018  -1.414  -0.595  0.00  0.00    +0.107 C 
BRANCH  35  36
ATOM     36  N   UNL     1      -6.216  -1.378  -1.464  0.00  0.00    -0.307 NA
ATOM     37  C   UNL     1      -6.352  -0.114  -2.204  0.00  0.00    +0.104 C 
ATOM     38  C   UNL     1      -7.457  -1.710  -0.746  0.00  0.00    +0.104 C 
ENDBRANCH  35  36
ENDBRANCH  34  35
ENDBRANCH  33  34
ENDBRANCH  28  29
ENDBRANCH  27  28
ENDBRANCH   4  27
TORSDOF 11
