REMARK  Name = 
REMARK  13 active torsions:
REMARK  status: ('A' for Active; 'I' for Inactive)
REMARK    1  A    between atoms: C_4  and  C_5
REMARK    2  A    between atoms: C_5  and  S_6
REMARK    3  A    between atoms: S_6  and  C_7
REMARK    4  A    between atoms: N_11  and  C_12
REMARK    5  A    between atoms: C_13  and  C_34
REMARK    6  A    between atoms: C_17  and  N_18
REMARK    7  A    between atoms: C_17  and  O_32
REMARK    8  A    between atoms: C_19  and  C_21
REMARK    9  A    between atoms: C_25  and  C_26
REMARK   10  A    between atoms: C_25  and  C_29
REMARK   11  A    between atoms: C_29  and  O_30
REMARK   12  A    between atoms: O_32  and  C_33
REMARK   13  A    between atoms: C_34  and  O_35
REMARK                            x       y       z     vdW  Elec       q    Type
REMARK                         _______ _______ _______ _____ _____    ______ ____
ROOT
ATOM      1  C   UNL     1      -0.861   1.668  -1.496  0.00  0.00    +0.199 C 
ATOM      2  S   UNL     1      -1.331  -0.119  -1.410  0.00  0.00    -0.128 S 
ATOM      3  C   UNL     1      -1.750  -0.207   0.380  0.00  0.00    +0.104 C 
ATOM      4  C   UNL     1      -2.739   0.862   0.812  0.00  0.00    -0.021 C 
ATOM      5  C   UNL     1      -2.450   2.150   0.512  0.00  0.00    +0.123 C 
ATOM      6  N   UNL     1      -1.317   2.365  -0.316  0.00  0.00    -0.244 N 
ATOM      7  C   UNL     1       0.079   2.780  -0.052  0.00  0.00    +0.275 C 
ATOM      8  O   UNL     1       0.654   3.428   0.861  0.00  0.00    -0.270 OA
ATOM      9  C   UNL     1       0.529   2.030  -1.281  0.00  0.00    +0.242 C 
ENDROOT
BRANCH   9  10
ATOM     10  N   UNL     1       1.412   0.893  -0.981  0.00  0.00    -0.276 N 
ATOM     11  C   UNL     1       1.922   0.022  -2.006  0.00  0.00    +0.239 C 
ATOM     12  O   UNL     1       1.570   0.185  -3.207  0.00  0.00    -0.274 OA
ATOM     13  H   UNL     1       1.729   0.749   0.004  0.00  0.00    +0.152 HD
BRANCH  11  14
ATOM     14  C   UNL     1       2.872  -1.087  -1.673  0.00  0.00    +0.200 C 
ATOM     15  S   UNL     1       2.228  -2.181  -0.440  0.00  0.00    -0.093 S 
ATOM     16  C   UNL     1       3.862  -1.966   0.363  0.00  0.00    +0.063 C 
ATOM     17  S   UNL     1       4.252  -0.530  -0.716  0.00  0.00    -0.093 S 
ATOM     18  C   UNL     1       4.576  -2.676   1.243  0.00  0.00    +0.140 C 
BRANCH  18  19
ATOM     19  C   UNL     1       5.928  -2.199   1.618  0.00  0.00    +0.250 C 
ATOM     20  N   UNL     1       7.024  -3.103   1.764  0.00  0.00    -0.325 N 
ATOM     21  O   UNL     1       6.129  -0.968   1.794  0.00  0.00    -0.270 OA
ATOM     22  H   UNL     1       6.904  -4.106   1.504  0.00  0.00    +0.145 HD
ATOM     23  H   UNL     1       6.968  -4.117   1.518  0.00  0.00    +0.145 HD
ENDBRANCH  18  19
BRANCH  18  24
ATOM     24  C   UNL     1       4.032  -3.918   1.843  0.00  0.00    +0.343 C 
ATOM     25  O   UNL     1       2.972  -4.438   1.405  0.00  0.00    -0.245 OA
BRANCH  24  26
ATOM     26  O   UNL     1       4.710  -4.545   2.888  0.00  0.00    -0.477 OA
ATOM     27  H   UNL     1       4.351  -5.399   3.300  0.00  0.00    +0.295 HD
ENDBRANCH  24  26
ENDBRANCH  18  24
ENDBRANCH  11  14
ENDBRANCH   9  10
BRANCH   9  28
ATOM     28  O   UNL     1       1.020   2.875  -2.314  0.00  0.00    -0.349 OA
ATOM     29  C   UNL     1       2.250   3.473  -1.952  0.00  0.00    +0.197 C 
ENDBRANCH   9  28
BRANCH   5  30
ATOM     30  C   UNL     1      -3.207   3.341   0.969  0.00  0.00    +0.351 C 
ATOM     31  O   UNL     1      -4.360   3.245   1.476  0.00  0.00    -0.244 OA
BRANCH  30  32
ATOM     32  O   UNL     1      -2.657   4.605   0.765  0.00  0.00    -0.476 OA
ATOM     33  H   UNL     1      -3.159   5.439   1.058  0.00  0.00    +0.295 HD
ENDBRANCH  30  32
ENDBRANCH   5  30
BRANCH   4  34
ATOM     34  C   UNL     1      -3.878   0.451   1.716  0.00  0.00    +0.111 C 
BRANCH  34  35
ATOM     35  S   UNL     1      -5.482   0.474   0.833  0.00  0.00    -0.080 S 
BRANCH  35  36
ATOM     36  C   UNL     1      -5.197  -1.079  -0.023  0.00  0.00    +0.209 A 
ATOM     37  N   UNL     1      -5.343  -2.293   0.541  0.00  0.00    -0.102 NA
ATOM     38  N   UNL     1      -5.050  -3.159  -0.425  0.00  0.00    -0.022 NA
ATOM     39  N   UNL     1      -4.745  -2.509  -1.540  0.00  0.00    -0.043 NA
ATOM     40  N   UNL     1      -4.815  -1.210  -1.307  0.00  0.00    -0.223 N 
ATOM     41  C   UNL     1      -4.703  -0.174  -2.328  0.00  0.00    +0.177 C 
ENDBRANCH  35  36
ENDBRANCH  34  35
ENDBRANCH   4  34
TORSDOF 11
