REMARK  Name = 
REMARK  13 active torsions:
REMARK  status: ('A' for Active; 'I' for Inactive)
REMARK    1  A    between atoms: C_4  and  C_5
REMARK    2  A    between atoms: C_5  and  S_6
REMARK    3  A    between atoms: S_6  and  C_7
REMARK    4  A    between atoms: N_11  and  C_12
REMARK    5  A    between atoms: CA_13  and  C_42
REMARK    6  A    between atoms: CA_17  and  N_18
REMARK    7  A    between atoms: C_19  and  CA_21
REMARK    8  A    between atoms: CA_21  and  N_22
REMARK    9  A    between atoms: CA_21  and  C_35
REMARK   10  A    between atoms: N_28  and  C_29
REMARK   11  A    between atoms: C_29  and  C_30
REMARK   12  A    between atoms: C_38  and  O_39
REMARK   13  A    between atoms: C_42  and  O_43
REMARK                            x       y       z     vdW  Elec       q    Type
REMARK                         _______ _______ _______ _____ _____    ______ ____
ROOT
ATOM      1  N   UNL     1       0.210  -1.641   0.633  0.00  0.00    -0.300 N 
ATOM      2  C   UNL     1      -0.723  -2.541   0.023  0.00  0.00    +0.239 C 
ATOM      3  O   UNL     1      -0.333  -3.670  -0.393  0.00  0.00    -0.273 OA
ATOM      4  H   UNL     1      -0.076  -0.653   0.817  0.00  0.00    +0.150 HD
ENDROOT
BRANCH   1  13
ATOM      5  C   UNL     1       2.652  -1.488   0.406  0.00  0.00    +0.169 C 
ATOM      6  S   UNL     1       2.344  -0.273  -0.925  0.00  0.00    -0.131 S 
ATOM      7  C   UNL     1       4.035   0.443  -0.773  0.00  0.00    +0.104 C 
ATOM      8  C   UNL     1       4.346   1.014   0.610  0.00  0.00    -0.021 C 
ATOM      9  CA  UNL     1       3.855   0.417   1.724  0.00  0.00    +0.123 C 
ATOM     10  N   UNL     1       3.046  -0.746   1.578  0.00  0.00    -0.249 N 
ATOM     11  C   UNL     1       1.956  -1.407   2.334  0.00  0.00    +0.244 C 
ATOM     12  O   UNL     1       1.540  -1.368   3.522  0.00  0.00    -0.273 OA
ATOM     13  CA  UNL     1       1.528  -2.106   1.080  0.00  0.00    +0.191 C 
BRANCH   9  14
ATOM     14  C   UNL     1       4.023   0.987   3.071  0.00  0.00    +0.351 C 
ATOM     15  OXT UNL     1       3.444   2.062   3.368  0.00  0.00    -0.244 OA
BRANCH  14  16
ATOM     16  O   UNL     1       4.764   0.318   4.036  0.00  0.00    -0.476 OA
ATOM     17  H   UNL     1       5.229  -0.557   3.821  0.00  0.00    +0.295 HD
ENDBRANCH  14  16
ENDBRANCH   9  14
BRANCH   8  18
ATOM     18  C   UNL     1       5.257   2.220   0.700  0.00  0.00    +0.111 C 
BRANCH  18  19
ATOM     19  S   UNL     1       6.819   1.798   1.567  0.00  0.00    -0.080 S 
BRANCH  19  20
ATOM     20  C   UNL     1       7.580   1.016   0.138  0.00  0.00    +0.209 A 
ATOM     21  N   UNL     1       7.443  -0.281  -0.182  0.00  0.00    -0.102 NA
ATOM     22  N   UNL     1       8.213  -0.453  -1.249  0.00  0.00    -0.022 NA
ATOM     23  N   UNL     1       8.807   0.686  -1.569  0.00  0.00    -0.043 NA
ATOM     24  N   UNL     1       8.421   1.617  -0.717  0.00  0.00    -0.223 N 
ATOM     25  C   UNL     1       8.898   2.991  -0.698  0.00  0.00    +0.177 C 
ENDBRANCH  19  20
ENDBRANCH  18  19
ENDBRANCH   8  18
ENDBRANCH   1  13
BRANCH   2  26
ATOM     26  CA  UNL     1      -2.196  -2.221  -0.024  0.00  0.00    +0.191 C 
BRANCH  26  27
ATOM     27  N   UNL     1      -2.442  -0.813  -0.361  0.00  0.00    -0.284 N 
ATOM     28  C   UNL     1      -2.108  -0.290  -1.661  0.00  0.00    +0.310 C 
ATOM     29  O   UNL     1      -1.236  -0.868  -2.367  0.00  0.00    -0.252 OA
ATOM     30  N   UNL     1      -2.802   0.855  -2.183  0.00  0.00    -0.217 N 
ATOM     31  C   UNL     1      -3.270   0.861  -3.574  0.00  0.00    +0.137 C 
ATOM     32  C   UNL     1      -4.791   1.068  -3.607  0.00  0.00    +0.127 C 
ATOM     33  N   UNL     1      -5.184   2.277  -2.865  0.00  0.00    -0.293 N 
ATOM     34  C   UNL     1      -4.425   2.688  -1.708  0.00  0.00    +0.302 C 
ATOM     35  O   UNL     1      -4.785   3.679  -1.017  0.00  0.00    -0.265 OA
ATOM     36  C   UNL     1      -3.225   1.931  -1.335  0.00  0.00    +0.309 C 
ATOM     37  O   UNL     1      -2.573   2.236  -0.297  0.00  0.00    -0.264 OA
ATOM     38  H   UNL     1      -3.157  -0.298   0.192  0.00  0.00    +0.151 HD
BRANCH  33  39
ATOM     39  C   UNL     1      -6.489   2.890  -3.155  0.00  0.00    +0.105 C 
ATOM     40  C   UNL     1      -7.567   2.310  -2.240  0.00  0.00    +0.024 C 
ENDBRANCH  33  39
ENDBRANCH  26  27
BRANCH  26  41
ATOM     41  C   UNL     1      -2.823  -2.584   1.306  0.00  0.00    -0.018 A 
ATOM     42  C   UNL     1      -3.571  -3.767   1.424  0.00  0.00    +0.009 A 
ATOM     43  C   UNL     1      -4.095  -4.150   2.662  0.00  0.00    +0.046 A 
ATOM     44  C   UNL     1      -3.873  -3.358   3.795  0.00  0.00    +0.117 A 
ATOM     45  C   UNL     1      -3.127  -2.183   3.687  0.00  0.00    +0.046 A 
ATOM     46  C   UNL     1      -2.600  -1.796   2.453  0.00  0.00    +0.009 A 
BRANCH  44  47
ATOM     47  O   UNL     1      -4.381  -3.733   5.037  0.00  0.00    -0.507 OA
ATOM     48  H   UNL     1      -4.872  -4.615   5.159  0.00  0.00    +0.292 HD
ENDBRANCH  44  47
ENDBRANCH  26  41
ENDBRANCH   2  26
TORSDOF 11
