REMARK  Name = 
REMARK  13 active torsions:
REMARK  status: ('A' for Active; 'I' for Inactive)
REMARK    1  A    between atoms: C_4  and  C_5
REMARK    2  A    between atoms: C_5  and  S_6
REMARK    3  A    between atoms: S_6  and  C_7
REMARK    4  A    between atoms: N_11  and  C_12
REMARK    5  A    between atoms: C_12  and  C_13
REMARK    6  A    between atoms: C_13  and  O_14
REMARK    7  A    between atoms: CA_16  and  C_33
REMARK    8  A    between atoms: CA_20  and  N_21
REMARK    9  A    between atoms: C_22  and  C_24
REMARK   10  A    between atoms: C_24  and  C_25
REMARK   11  A    between atoms: C_30  and  C_31
REMARK   12  A    between atoms: C_31  and  N_32
REMARK   13  A    between atoms: C_33  and  O_34
REMARK                            x       y       z     vdW  Elec       q    Type
REMARK                         _______ _______ _______ _____ _____    ______ ____
ROOT
ATOM      1  C   UNL     1      -0.159   0.609  -0.623  0.00  0.00    +0.169 C 
ATOM      2  S   UNL     1       0.133  -1.188  -0.484  0.00  0.00    -0.131 S 
ATOM      3  C   UNL     1      -1.656  -1.583  -0.693  0.00  0.00    +0.104 C 
ATOM      4  C   UNL     1      -2.570  -0.954   0.364  0.00  0.00    -0.021 C 
ATOM      5  CA  UNL     1      -2.311   0.284   0.838  0.00  0.00    +0.123 C 
ATOM      6  N   UNL     1      -1.155   0.970   0.357  0.00  0.00    -0.249 N 
ATOM      7  C   UNL     1      -0.240   2.029   0.855  0.00  0.00    +0.244 C 
ATOM      8  O   UNL     1      -0.315   2.940   1.722  0.00  0.00    -0.273 OA
ATOM      9  CA  UNL     1       0.818   1.524  -0.078  0.00  0.00    +0.191 C 
ENDROOT
BRANCH   9  10
ATOM     10  N   UNL     1       1.886   0.875   0.672  0.00  0.00    -0.301 N 
ATOM     11  C   UNL     1       3.242   0.855   0.197  0.00  0.00    +0.218 C 
ATOM     12  O   UNL     1       3.651   1.722  -0.622  0.00  0.00    -0.275 OA
ATOM     13  H   UNL     1       1.646   0.242   1.471  0.00  0.00    +0.150 HD
BRANCH  11  14
ATOM     14  C   UNL     1       4.146  -0.272   0.623  0.00  0.00    +0.131 C 
BRANCH  14  15
ATOM     15  C   UNL     1       5.616   0.111   0.628  0.00  0.00    -0.034 A 
ATOM     16  C   UNL     1       6.184   0.514   1.853  0.00  0.00    +0.004 A 
ATOM     17  C   UNL     1       7.537   0.836   1.938  0.00  0.00    +0.000 A 
ATOM     18  C   UNL     1       8.347   0.767   0.803  0.00  0.00    +0.000 A 
ATOM     19  C   UNL     1       7.797   0.388  -0.423  0.00  0.00    +0.005 A 
ATOM     20  C   UNL     1       6.432   0.060  -0.538  0.00  0.00    -0.030 A 
BRANCH  20  21
ATOM     21  C   UNL     1       5.904  -0.246  -1.924  0.00  0.00    +0.113 C 
BRANCH  21  22
ATOM     22  N   UNL     1       5.705   0.999  -2.660  0.00  0.00    -0.326 NA
ATOM     23  H   UNL     1       6.634   1.453  -2.826  0.00  0.00    +0.119 HD
ATOM     24  H   UNL     1       5.330   0.754  -3.604  0.00  0.00    +0.119 HD
ENDBRANCH  21  22
ENDBRANCH  20  21
ENDBRANCH  14  15
ENDBRANCH  11  14
ENDBRANCH   9  10
BRANCH   5  25
ATOM     25  C   UNL     1      -3.041   0.897   1.960  0.00  0.00    +0.351 C 
ATOM     26  OXT UNL     1      -4.074   1.595   1.756  0.00  0.00    -0.244 OA
BRANCH  25  27
ATOM     27  O   UNL     1      -2.463   0.905   3.230  0.00  0.00    -0.476 OA
ATOM     28  H   UNL     1      -1.558   0.478   3.422  0.00  0.00    +0.295 HD
ENDBRANCH  25  27
ENDBRANCH   5  25
BRANCH   4  29
ATOM     29  C   UNL     1      -3.768  -1.758   0.830  0.00  0.00    +0.111 C 
BRANCH  29  30
ATOM     30  S   UNL     1      -4.721  -2.377  -0.611  0.00  0.00    -0.080 S 
BRANCH  30  31
ATOM     31  C   UNL     1      -5.535  -0.818  -0.983  0.00  0.00    +0.210 A 
ATOM     32  N   UNL     1      -4.885   0.304  -1.350  0.00  0.00    -0.101 NA
ATOM     33  N   UNL     1      -5.839   1.123  -1.791  0.00  0.00    -0.022 NA
ATOM     34  N   UNL     1      -7.019   0.527  -1.706  0.00  0.00    -0.043 NA
ATOM     35  N   UNL     1      -6.859  -0.675  -1.191  0.00  0.00    -0.209 N 
BRANCH  35  36
ATOM     36  C   UNL     1      -7.880  -1.730  -1.176  0.00  0.00    +0.268 C 
BRANCH  36  37
ATOM     37  C   UNL     1      -9.259  -1.152  -1.099  0.00  0.00    +0.327 C 
ATOM     38  O   UNL     1     -10.134  -1.514  -1.940  0.00  0.00    -0.249 OA
BRANCH  37  39
ATOM     39  O   UNL     1      -9.577  -0.215  -0.112  0.00  0.00    -0.479 OA
ATOM     40  H   UNL     1     -10.398   0.368  -0.207  0.00  0.00    +0.295 HD
ENDBRANCH  37  39
ENDBRANCH  36  37
ENDBRANCH  35  36
ENDBRANCH  30  31
ENDBRANCH  29  30
ENDBRANCH   4  29
TORSDOF 13
