REMARK  Name = 
REMARK  9 active torsions:
REMARK  status: ('A' for Active; 'I' for Inactive)
REMARK    1  A    between atoms: C_4  and  C_5
REMARK    2  A    between atoms: C_6  and  C_7
REMARK    3  A    between atoms: CA_8  and  C_25
REMARK    4  A    between atoms: CA_12  and  N_13
REMARK    5  A    between atoms: C_14  and  CA_16
REMARK    6  A    between atoms: CA_16  and  N_17
REMARK    7  A    between atoms: CA_16  and  C_18
REMARK    8  A    between atoms: C_21  and  O_22
REMARK    9  A    between atoms: C_25  and  O_26
REMARK                            x       y       z     vdW  Elec       q    Type
REMARK                         _______ _______ _______ _____ _____    ______ ____
ROOT
ATOM      1  C   UNL     1      -1.412   0.113   1.384  0.00  0.00    +0.169 C 
ATOM      2  S   UNL     1      -0.826   1.775   0.917  0.00  0.00    -0.131 S 
ATOM      3  C   UNL     1      -2.538   2.396   0.659  0.00  0.00    +0.108 C 
ATOM      4  C   UNL     1      -3.326   1.630  -0.401  0.00  0.00    -0.009 C 
ATOM      5  CA  UNL     1      -3.210   0.280  -0.506  0.00  0.00    +0.126 C 
ATOM      6  N   UNL     1      -2.233  -0.374   0.306  0.00  0.00    -0.249 N 
ATOM      7  C   UNL     1      -1.374  -1.581   0.238  0.00  0.00    +0.244 C 
ATOM      8  O   UNL     1      -1.363  -2.637  -0.447  0.00  0.00    -0.273 OA
ATOM      9  CA  UNL     1      -0.489  -0.998   1.297  0.00  0.00    +0.191 C 
ENDROOT
BRANCH   9  10
ATOM     10  N   UNL     1       0.833  -0.651   0.768  0.00  0.00    -0.300 N 
ATOM     11  C   UNL     1       1.901  -0.240   1.637  0.00  0.00    +0.235 C 
ATOM     12  O   UNL     1       1.714  -0.209   2.884  0.00  0.00    -0.274 OA
ATOM     13  H   UNL     1       0.988  -0.684  -0.264  0.00  0.00    +0.150 HD
BRANCH  11  14
ATOM     14  CA  UNL     1       3.269   0.110   1.101  0.00  0.00    +0.168 C 
BRANCH  14  15
ATOM     15  C   UNL     1       4.151  -1.123   0.999  0.00  0.00    -0.022 A 
ATOM     16  C   UNL     1       5.369  -1.173   1.701  0.00  0.00    +0.009 A 
ATOM     17  C   UNL     1       6.192  -2.300   1.614  0.00  0.00    +0.046 A 
ATOM     18  C   UNL     1       5.815  -3.387   0.821  0.00  0.00    +0.117 A 
ATOM     19  C   UNL     1       4.608  -3.345   0.113  0.00  0.00    +0.046 A 
ATOM     20  C   UNL     1       3.780  -2.222   0.202  0.00  0.00    +0.009 A 
BRANCH  18  21
ATOM     21  O   UNL     1       6.647  -4.502   0.742  0.00  0.00    -0.507 OA
ATOM     22  H   UNL     1       6.401  -5.307   0.178  0.00  0.00    +0.292 HD
ENDBRANCH  18  21
ENDBRANCH  14  15
BRANCH  14  23
ATOM     23  N   UNL     1       3.180   0.818  -0.179  0.00  0.00    -0.316 NA
ATOM     24  H1  UNL     1       2.974   0.148  -0.955  0.00  0.00    +0.119 HD
ATOM     25  H2  UNL     1       4.118   1.231  -0.390  0.00  0.00    +0.119 HD
ENDBRANCH  14  23
ENDBRANCH  11  14
ENDBRANCH   9  10
BRANCH   4  26
ATOM     26  C   UNL     1      -4.217   2.400  -1.308  0.00  0.00    +0.002 C 
ATOM     27  C   UNL     1      -4.898   3.475  -0.901  0.00  0.00    -0.030 C 
ATOM     28  C   UNL     1      -5.787   4.222  -1.843  0.00  0.00    +0.035 C 
ENDBRANCH   4  26
BRANCH   5  29
ATOM     29  C   UNL     1      -4.025  -0.536  -1.438  0.00  0.00    +0.352 C 
ATOM     30  OXT UNL     1      -3.554  -1.603  -1.913  0.00  0.00    -0.244 OA
BRANCH  29  31
ATOM     31  O   UNL     1      -5.330  -0.168  -1.756  0.00  0.00    -0.476 OA
ATOM     32  H   UNL     1      -5.893  -0.735  -2.378  0.00  0.00    +0.295 HD
ENDBRANCH  29  31
ENDBRANCH   5  29
TORSDOF 8
