REMARK  Name = 
REMARK  10 active torsions:
REMARK  status: ('A' for Active; 'I' for Inactive)
REMARK    1  A    between atoms: C_4  and  C_5
REMARK    2  A    between atoms: C_5  and  O_6
REMARK    3  A    between atoms: O_6  and  C_7
REMARK    4  A    between atoms: CA_8  and  C_26
REMARK    5  A    between atoms: CA_12  and  N_13
REMARK    6  A    between atoms: C_14  and  C_16
REMARK    7  A    between atoms: C_16  and  C_20
REMARK    8  A    between atoms: N_17  and  O_18
REMARK    9  A    between atoms: O_18  and  C_19
REMARK   10  A    between atoms: C_26  and  O_27
REMARK                            x       y       z     vdW  Elec       q    Type
REMARK                         _______ _______ _______ _____ _____    ______ ____
ROOT
ATOM      1  C   UNL     1      -1.089  -1.348   0.900  0.00  0.00    +0.169 C 
ATOM      2  S   UNL     1      -0.522   0.239   1.597  0.00  0.00    -0.131 S 
ATOM      3  C   UNL     1      -2.238   0.747   2.004  0.00  0.00    +0.106 C 
ATOM      4  C   UNL     1      -3.138   0.870   0.778  0.00  0.00    -0.006 C 
ATOM      5  CA  UNL     1      -3.086  -0.069  -0.207  0.00  0.00    +0.124 C 
ATOM      6  N   UNL     1      -2.048  -1.053  -0.135  0.00  0.00    -0.249 N 
ATOM      7  C   UNL     1      -1.245  -1.881  -1.068  0.00  0.00    +0.244 C 
ATOM      8  O   UNL     1      -1.352  -2.242  -2.269  0.00  0.00    -0.273 OA
ATOM      9  CA  UNL     1      -0.216  -2.077   0.004  0.00  0.00    +0.191 C 
ENDROOT
BRANCH   9  10
ATOM     10  N   UNL     1       1.043  -1.400  -0.322  0.00  0.00    -0.296 N 
ATOM     11  C   UNL     1       2.184  -1.478   0.546  0.00  0.00    +0.268 C 
ATOM     12  O   UNL     1       2.083  -2.065   1.658  0.00  0.00    -0.268 OA
ATOM     13  H   UNL     1       1.168  -0.999  -1.279  0.00  0.00    +0.150 HD
BRANCH  11  14
ATOM     14  C   UNL     1       3.489  -0.898   0.139  0.00  0.00    +0.190 C 
ATOM     15  N   UNL     1       4.604  -1.494   0.442  0.00  0.00    -0.078 NA
BRANCH  14  16
ATOM     16  C   UNL     1       3.564   0.360  -0.635  0.00  0.00    +0.107 A 
ATOM     17  C   UNL     1       2.549   1.320  -0.675  0.00  0.00    +0.078 A 
ATOM     18  S   UNL     1       3.069   2.601  -1.635  0.00  0.00    -0.060 S 
ATOM     19  C   UNL     1       4.556   1.887  -1.946  0.00  0.00    +0.156 A 
ATOM     20  N   UNL     1       5.579   2.468  -2.750  0.00  0.00    -0.338 N 
ATOM     21  N   UNL     1       4.683   0.690  -1.339  0.00  0.00    -0.223 NA
ATOM     22  H   UNL     1       6.483   1.966  -2.895  0.00  0.00    +0.144 HD
ATOM     23  H   UNL     1       5.431   3.398  -3.201  0.00  0.00    +0.144 HD
ENDBRANCH  14  16
BRANCH  15  24
ATOM     24  O   UNL     1       4.648  -2.685   1.133  0.00  0.00    -0.396 OA
ATOM     25  C   UNL     1       5.893  -3.290   1.437  0.00  0.00    +0.313 C 
ENDBRANCH  15  24
ENDBRANCH  11  14
ENDBRANCH   9  10
BRANCH   5  26
ATOM     26  C   UNL     1      -3.976  -0.060  -1.395  0.00  0.00    +0.351 C 
ATOM     27  OXT UNL     1      -5.158   0.369  -1.319  0.00  0.00    -0.244 OA
BRANCH  26  28
ATOM     28  O   UNL     1      -3.521  -0.571  -2.606  0.00  0.00    -0.476 OA
ATOM     29  H   UNL     1      -4.120  -0.584  -3.423  0.00  0.00    +0.295 HD
ENDBRANCH  26  28
ENDBRANCH   5  26
BRANCH   4  30
ATOM     30  C   UNL     1      -4.078   2.053   0.722  0.00  0.00    +0.193 C 
BRANCH  30  31
ATOM     31  O   UNL     1      -5.367   1.639   1.124  0.00  0.00    -0.379 OA
ATOM     32  C   UNL     1      -6.266   2.719   1.004  0.00  0.00    +0.194 C 
ENDBRANCH  30  31
ENDBRANCH   4  30
TORSDOF 8
