REMARK  Name = 
REMARK  14 active torsions:
REMARK  status: ('A' for Active; 'I' for Inactive)
REMARK    1  A    between atoms: C_4  and  C_5
REMARK    2  A    between atoms: C_5  and  S_6
REMARK    3  A    between atoms: S_6  and  C_7
REMARK    4  A    between atoms: N_11  and  C_12
REMARK    5  A    between atoms: CA_13  and  C_40
REMARK    6  A    between atoms: CA_17  and  N_18
REMARK    7  A    between atoms: C_19  and  CA_21
REMARK    8  A    between atoms: CA_21  and  N_22
REMARK    9  A    between atoms: CA_21  and  C_33
REMARK   10  A    between atoms: C_23  and  C_25
REMARK   11  A    between atoms: C_26  and  O_27
REMARK   12  A    between atoms: C_29  and  C_30
REMARK   13  A    between atoms: C_36  and  O_37
REMARK   14  A    between atoms: C_40  and  O_41
REMARK                            x       y       z     vdW  Elec       q    Type
REMARK                         _______ _______ _______ _____ _____    ______ ____
ROOT
ATOM      1  N   UNL     1       0.228   0.116  -1.500  0.00  0.00    -0.300 N 
ATOM      2  C   UNL     1      -0.847   0.757  -0.799  0.00  0.00    +0.239 C 
ATOM      3  O   UNL     1      -0.702   1.933  -0.364  0.00  0.00    -0.273 OA
ATOM      4  H   UNL     1       0.087  -0.860  -1.852  0.00  0.00    +0.150 HD
ENDROOT
BRANCH   1  13
ATOM      5  C   UNL     1       2.439   0.604  -0.563  0.00  0.00    +0.169 C 
ATOM      6  S   UNL     1       1.869  -0.300   0.917  0.00  0.00    -0.131 S 
ATOM      7  C   UNL     1       3.591  -0.637   1.466  0.00  0.00    +0.104 C 
ATOM      8  C   UNL     1       4.409  -1.454   0.470  0.00  0.00    -0.021 C 
ATOM      9  CA  UNL     1       4.277  -1.233  -0.866  0.00  0.00    +0.123 C 
ATOM     10  N   UNL     1       3.308  -0.279  -1.297  0.00  0.00    -0.249 N 
ATOM     11  C   UNL     1       2.462  -0.072  -2.494  0.00  0.00    +0.244 C 
ATOM     12  O   UNL     1       2.489  -0.475  -3.687  0.00  0.00    -0.273 OA
ATOM     13  CA  UNL     1       1.528   0.768  -1.677  0.00  0.00    +0.191 C 
BRANCH   9  14
ATOM     14  C   UNL     1       5.016  -1.968  -1.911  0.00  0.00    +0.351 C 
ATOM     15  OXT UNL     1       5.141  -3.221  -1.860  0.00  0.00    -0.244 OA
BRANCH  14  16
ATOM     16  O   UNL     1       5.501  -1.274  -3.015  0.00  0.00    -0.476 OA
ATOM     17  H   UNL     1       5.986  -1.758  -3.762  0.00  0.00    +0.295 HD
ENDBRANCH  14  16
ENDBRANCH   9  14
BRANCH   8  18
ATOM     18  C   UNL     1       5.477  -2.351   1.060  0.00  0.00    +0.111 C 
BRANCH  18  19
ATOM     19  S   UNL     1       6.827  -1.365   1.795  0.00  0.00    -0.080 S 
BRANCH  19  20
ATOM     20  C   UNL     1       7.567  -0.915   0.222  0.00  0.00    +0.209 A 
ATOM     21  N   UNL     1       8.383  -1.716  -0.486  0.00  0.00    -0.102 NA
ATOM     22  N   UNL     1       8.702  -1.012  -1.565  0.00  0.00    -0.022 NA
ATOM     23  N   UNL     1       8.114   0.176  -1.525  0.00  0.00    -0.043 NA
ATOM     24  N   UNL     1       7.411   0.260  -0.410  0.00  0.00    -0.223 N 
ATOM     25  C   UNL     1       6.595   1.405  -0.027  0.00  0.00    +0.177 C 
ENDBRANCH  19  20
ENDBRANCH  18  19
ENDBRANCH   8  18
ENDBRANCH   1  13
BRANCH   2  26
ATOM     26  CA  UNL     1      -2.100  -0.018  -0.484  0.00  0.00    +0.190 C 
BRANCH  26  27
ATOM     27  C   UNL     1      -1.944  -0.677   0.867  0.00  0.00    -0.018 A 
ATOM     28  C   UNL     1      -2.097   0.064   2.053  0.00  0.00    +0.009 A 
ATOM     29  C   UNL     1      -1.899  -0.543   3.296  0.00  0.00    +0.046 A 
ATOM     30  C   UNL     1      -1.533  -1.889   3.372  0.00  0.00    +0.117 A 
ATOM     31  C   UNL     1      -1.364  -2.631   2.196  0.00  0.00    +0.046 A 
ATOM     32  C   UNL     1      -1.564  -2.028   0.951  0.00  0.00    +0.009 A 
BRANCH  30  33
ATOM     33  O   UNL     1      -1.337  -2.480   4.619  0.00  0.00    -0.507 OA
ATOM     34  H   UNL     1      -1.068  -3.453   4.707  0.00  0.00    +0.292 HD
ENDBRANCH  30  33
ENDBRANCH  26  27
BRANCH  26  35
ATOM     35  N   UNL     1      -3.292   0.839  -0.511  0.00  0.00    -0.296 N 
ATOM     36  C   UNL     1      -4.619   0.286  -0.501  0.00  0.00    +0.250 C 
ATOM     37  O   UNL     1      -4.780  -0.953  -0.674  0.00  0.00    -0.270 OA
ATOM     38  H   UNL     1      -3.184   1.879  -0.533  0.00  0.00    +0.150 HD
BRANCH  36  39
ATOM     39  C   UNL     1      -5.801   1.156  -0.288  0.00  0.00    +0.096 A 
ATOM     40  C   UNL     1      -7.046   0.857  -0.877  0.00  0.00    +0.132 A 
ATOM     41  C   UNL     1      -8.145   1.694  -0.642  0.00  0.00    +0.069 A 
ATOM     42  C   UNL     1      -7.998   2.813   0.183  0.00  0.00    +0.042 A 
ATOM     43  C   UNL     1      -9.153   3.731   0.427  0.00  0.00    +0.066 C 
ATOM     44  N   UNL     1      -6.788   3.085   0.741  0.00  0.00    -0.259 NA
ATOM     45  C   UNL     1      -5.704   2.294   0.530  0.00  0.00    +0.127 A 
BRANCH  40  46
ATOM     46  O   UNL     1      -7.189  -0.255  -1.707  0.00  0.00    -0.506 OA
ATOM     47  H   UNL     1      -8.075  -0.482  -2.143  0.00  0.00    +0.292 HD
ENDBRANCH  40  46
ENDBRANCH  36  39
ENDBRANCH  26  35
ENDBRANCH   2  26
TORSDOF 12
