REMARK  Name = 
REMARK  8 active torsions:
REMARK  status: ('A' for Active; 'I' for Inactive)
REMARK    1  A    between atoms: CA_5  and  C_25
REMARK    2  A    between atoms: CA_9  and  N_10
REMARK    3  A    between atoms: C_11  and  C_13
REMARK    4  A    between atoms: C_13  and  C_19
REMARK    5  A    between atoms: C_14  and  C_15
REMARK    6  A    between atoms: C_15  and  C_16
REMARK    7  A    between atoms: C_16  and  O_17
REMARK    8  A    between atoms: C_25  and  O_26
REMARK                            x       y       z     vdW  Elec       q    Type
REMARK                         _______ _______ _______ _____ _____    ______ ____
ROOT
ATOM      1  N   UNL     1       0.366  -0.712   0.079  0.00  0.00    -0.298 N 
ATOM      2  C   UNL     1      -0.489  -0.617  -1.070  0.00  0.00    +0.247 C 
ATOM      3  O   UNL     1       0.014  -0.469  -2.216  0.00  0.00    -0.270 OA
ATOM      4  H   UNL     1      -0.077  -0.817   1.021  0.00  0.00    +0.150 HD
ENDROOT
BRANCH   1  13
ATOM      5  CE  UNL     1       2.590   0.299  -0.211  0.00  0.00    +0.169 C 
ATOM      6  SD  UNL     1       1.714   1.905  -0.278  0.00  0.00    -0.131 S 
ATOM      7  CG  UNL     1       3.213   2.858   0.203  0.00  0.00    +0.100 C 
ATOM      8  CB  UNL     1       3.784   2.437   1.538  0.00  0.00    +0.014 C 
ATOM      9  CA  UNL     1       3.826   1.150   1.925  0.00  0.00    +0.119 C 
ATOM     10  N   UNL     1       3.189   0.178   1.095  0.00  0.00    -0.249 N 
ATOM     11  C   UNL     1       2.474  -1.108   1.273  0.00  0.00    +0.244 C 
ATOM     12  O   UNL     1       2.405  -1.977   2.181  0.00  0.00    -0.273 OA
ATOM     13  CA  UNL     1       1.812  -0.914  -0.059  0.00  0.00    +0.191 C 
BRANCH   9  14
ATOM     14  C   UNL     1       4.431   0.748   3.213  0.00  0.00    +0.351 C 
ATOM     15  OXT UNL     1       4.888   1.614   4.008  0.00  0.00    -0.244 OA
BRANCH  14  16
ATOM     16  O   UNL     1       4.516  -0.600   3.551  0.00  0.00    -0.476 OA
ATOM     17  H   UNL     1       4.924  -0.892   4.430  0.00  0.00    +0.295 HD
ENDBRANCH  14  16
ENDBRANCH   9  14
ENDBRANCH   1  13
BRANCH   2  18
ATOM     18  C   UNL     1      -1.963  -0.695  -0.911  0.00  0.00    +0.059 C 
ATOM     19  C   UNL     1      -2.716  -1.527  -1.665  0.00  0.00    -0.001 C 
BRANCH  18  20
ATOM     20  C   UNL     1      -2.623   0.133   0.134  0.00  0.00    +0.085 A 
ATOM     21  C   UNL     1      -2.061   1.299   0.662  0.00  0.00    +0.077 A 
ATOM     22  S   UNL     1      -3.127   1.937   1.797  0.00  0.00    -0.060 S 
ATOM     23  C   UNL     1      -4.252   0.712   1.566  0.00  0.00    +0.156 A 
ATOM     24  N   UNL     1      -5.496   0.616   2.256  0.00  0.00    -0.338 N 
ATOM     25  N   UNL     1      -3.848  -0.184   0.643  0.00  0.00    -0.225 NA
ATOM     26  H   UNL     1      -5.768   1.342   2.956  0.00  0.00    +0.144 HD
ATOM     27  H   UNL     1      -6.129  -0.197   2.090  0.00  0.00    +0.144 HD
ENDBRANCH  18  20
BRANCH  19  28
ATOM     28  C   UNL     1      -2.187  -2.455  -2.725  0.00  0.00    +0.148 C 
BRANCH  28  29
ATOM     29  C   UNL     1      -2.376  -1.847  -4.077  0.00  0.00    +0.309 C 
ATOM     30  O   UNL     1      -1.428  -1.223  -4.631  0.00  0.00    -0.251 OA
BRANCH  29  31
ATOM     31  O   UNL     1      -3.619  -1.927  -4.702  0.00  0.00    -0.480 OA
ATOM     32  H   UNL     1      -3.772  -1.503  -5.610  0.00  0.00    +0.295 HD
ENDBRANCH  29  31
ENDBRANCH  28  29
ENDBRANCH  19  28
ENDBRANCH   2  18
TORSDOF 8
