REMARK  Name = 
REMARK  11 active torsions:
REMARK  status: ('A' for Active; 'I' for Inactive)
REMARK    1  A    between atoms: C_4  and  C_5
REMARK    2  A    between atoms: C_5  and  S_6
REMARK    3  A    between atoms: S_6  and  C_7
REMARK    4  A    between atoms: N_14  and  C_15
REMARK    5  A    between atoms: CA_16  and  C_34
REMARK    6  A    between atoms: CA_20  and  N_21
REMARK    7  A    between atoms: C_22  and  C_24
REMARK    8  A    between atoms: C_24  and  C_28
REMARK    9  A    between atoms: N_25  and  O_26
REMARK   10  A    between atoms: O_26  and  C_27
REMARK   11  A    between atoms: C_34  and  O_35
REMARK                            x       y       z     vdW  Elec       q    Type
REMARK                         _______ _______ _______ _____ _____    ______ ____
ROOT
ATOM      1  C   UNL     1       0.098   1.182  -0.455  0.00  0.00    +0.169 C 
ATOM      2  S   UNL     1      -0.169  -0.493  -1.184  0.00  0.00    -0.131 S 
ATOM      3  C   UNL     1      -0.487  -1.424   0.368  0.00  0.00    +0.104 C 
ATOM      4  C   UNL     1      -1.537  -0.775   1.254  0.00  0.00    -0.021 C 
ATOM      5  CA  UNL     1      -1.344   0.513   1.618  0.00  0.00    +0.123 C 
ATOM      6  N   UNL     1      -0.326   1.224   0.924  0.00  0.00    -0.249 N 
ATOM      7  C   UNL     1       1.011   1.739   1.290  0.00  0.00    +0.244 C 
ATOM      8  O   UNL     1       1.567   2.091   2.363  0.00  0.00    -0.273 OA
ATOM      9  CA  UNL     1       1.448   1.597  -0.138  0.00  0.00    +0.191 C 
ENDROOT
BRANCH   9  10
ATOM     10  N   UNL     1       2.464   0.551  -0.295  0.00  0.00    -0.296 N 
ATOM     11  C   UNL     1       3.091   0.302  -1.562  0.00  0.00    +0.268 C 
ATOM     12  O   UNL     1       2.737   0.965  -2.575  0.00  0.00    -0.268 OA
ATOM     13  H   UNL     1       2.832   0.068   0.556  0.00  0.00    +0.150 HD
BRANCH  11  14
ATOM     14  C   UNL     1       4.166  -0.713  -1.689  0.00  0.00    +0.190 C 
ATOM     15  N   UNL     1       5.166  -0.527  -2.499  0.00  0.00    -0.078 NA
BRANCH  14  16
ATOM     16  C   UNL     1       4.117  -1.964  -0.900  0.00  0.00    +0.107 A 
ATOM     17  C   UNL     1       5.226  -2.795  -0.720  0.00  0.00    +0.078 A 
ATOM     18  S   UNL     1       4.751  -4.114   0.209  0.00  0.00    -0.060 S 
ATOM     19  C   UNL     1       3.165  -3.580   0.329  0.00  0.00    +0.156 A 
ATOM     20  N   UNL     1       2.135  -4.268   1.033  0.00  0.00    -0.338 N 
ATOM     21  N   UNL     1       2.970  -2.411  -0.318  0.00  0.00    -0.223 NA
ATOM     22  H   UNL     1       2.348  -5.156   1.539  0.00  0.00    +0.144 HD
ATOM     23  H   UNL     1       1.164  -3.889   1.056  0.00  0.00    +0.144 HD
ENDBRANCH  14  16
BRANCH  15  24
ATOM     24  O   UNL     1       5.308   0.613  -3.260  0.00  0.00    -0.396 OA
ATOM     25  C   UNL     1       6.418   0.760  -4.129  0.00  0.00    +0.313 C 
ENDBRANCH  15  24
ENDBRANCH  11  14
ENDBRANCH   9  10
BRANCH   5  26
ATOM     26  C   UNL     1      -2.109   1.236   2.659  0.00  0.00    +0.351 C 
ATOM     27  OXT UNL     1      -2.494   0.653   3.705  0.00  0.00    -0.244 OA
BRANCH  26  28
ATOM     28  O   UNL     1      -2.337   2.604   2.532  0.00  0.00    -0.476 OA
ATOM     29  H   UNL     1      -2.055   3.113   1.703  0.00  0.00    +0.295 HD
ENDBRANCH  26  28
ENDBRANCH   5  26
BRANCH   4  30
ATOM     30  C   UNL     1      -2.716  -1.617   1.690  0.00  0.00    +0.111 C 
BRANCH  30  31
ATOM     31  S   UNL     1      -4.068  -1.546   0.462  0.00  0.00    -0.082 S 
BRANCH  31  32
ATOM     32  C   UNL     1      -4.745   0.022   1.039  0.00  0.00    +0.187 A 
ATOM     33  N   UNL     1      -5.461   0.030   2.191  0.00  0.00    -0.179 NA
ATOM     34  C   UNL     1      -5.984   1.179   2.679  0.00  0.00    +0.338 A 
ATOM     35  O   UNL     1      -6.638   1.164   3.756  0.00  0.00    -0.260 OA
ATOM     36  C   UNL     1      -5.788   2.366   1.978  0.00  0.00    +0.330 A 
ATOM     37  O   UNL     1      -6.258   3.455   2.407  0.00  0.00    -0.260 OA
ATOM     38  N   UNL     1      -5.084   2.334   0.815  0.00  0.00    -0.257 N 
ATOM     39  N   UNL     1      -4.569   1.190   0.342  0.00  0.00    -0.264 N 
ATOM     40  C   UNL     1      -3.867   1.196  -0.947  0.00  0.00    +0.173 C 
ATOM     41  H   UNL     1      -4.952   3.228   0.290  0.00  0.00    +0.190 HD
ENDBRANCH  31  32
ENDBRANCH  30  31
ENDBRANCH   4  30
TORSDOF 9
