REMARK  Name = 
REMARK  12 active torsions:
REMARK  status: ('A' for Active; 'I' for Inactive)
REMARK    1  A    between atoms: C_2  and  CA_4
REMARK    2  A    between atoms: C_5  and  C_31
REMARK    3  A    between atoms: CA_9  and  N_10
REMARK    4  A    between atoms: C_11  and  C_13
REMARK    5  A    between atoms: C_13  and  C_22
REMARK    6  A    between atoms: N_14  and  O_15
REMARK    7  A    between atoms: O_15  and  C_16
REMARK    8  A    between atoms: C_16  and  C_17
REMARK    9  A    between atoms: C_16  and  C_18
REMARK   10  A    between atoms: C_16  and  C_19
REMARK   11  A    between atoms: C_19  and  O_20
REMARK   12  A    between atoms: C_31  and  N_32
REMARK                            x       y       z     vdW  Elec       q    Type
REMARK                         _______ _______ _______ _____ _____    ______ ____
ROOT
ATOM      1  N   UNL     1      -0.963   0.673   1.606  0.00  0.00    -0.296 N 
ATOM      2  C   UNL     1      -2.175   0.608   2.366  0.00  0.00    +0.268 C 
ATOM      3  O   UNL     1      -2.139   0.277   3.585  0.00  0.00    -0.268 OA
ATOM      4  H   UNL     1      -0.901   1.399   0.856  0.00  0.00    +0.150 HD
ENDROOT
BRANCH   1  10
ATOM      5  CA  UNL     1       3.180   0.640   0.295  0.00  0.00    +0.128 C 
ATOM      6  C   UNL     1       3.117   0.445  -1.044  0.00  0.00    -0.012 C 
ATOM      7  C   UNL     1       2.051  -0.466  -1.627  0.00  0.00    +0.105 C 
ATOM      8  S   UNL     1       0.395  -0.167  -0.903  0.00  0.00    -0.131 S 
ATOM      9  C   UNL     1       0.948  -0.635   0.778  0.00  0.00    +0.169 C 
ATOM     10  CA  UNL     1       0.193  -0.169   1.926  0.00  0.00    +0.191 C 
ATOM     11  C   UNL     1       1.383   0.649   2.315  0.00  0.00    +0.244 C 
ATOM     12  O   UNL     1       1.644   1.448   3.253  0.00  0.00    -0.273 OA
ATOM     13  N   UNL     1       2.098   0.168   1.104  0.00  0.00    -0.249 N 
BRANCH   5  15
ATOM     14  O   UNL     1       4.663   1.187   2.220  0.00  0.00    -0.239 OA
ATOM     15  C   UNL     1       4.244   1.449   0.915  0.00  0.00    +0.401 C 
ATOM     16  OXT UNL     1       4.627   1.220   2.089  0.00  0.00    -0.239 OA
ENDBRANCH   5  15
BRANCH   6  17
ATOM     17  C   UNL     1       4.155   1.010  -1.990  0.00  0.00    +0.155 C 
BRANCH  17  18
ATOM     18  N   UNL     1       5.147  -0.017  -2.333  0.00  0.00    -0.349 N 
ATOM     19  C   UNL     1       4.954  -0.816  -3.430  0.00  0.00    +0.086 A 
ATOM     20  C   UNL     1       5.884  -1.804  -3.761  0.00  0.00    +0.018 A 
ATOM     21  C   UNL     1       7.014  -1.975  -2.964  0.00  0.00    +0.003 A 
ATOM     22  C   UNL     1       7.197  -1.168  -1.842  0.00  0.00    +0.018 A 
ATOM     23  C   UNL     1       6.246  -0.191  -1.536  0.00  0.00    +0.086 A 
ENDBRANCH  17  18
ENDBRANCH   6  17
ENDBRANCH   1  10
BRANCH   2  24
ATOM     24  C   UNL     1      -3.467   0.921   1.725  0.00  0.00    +0.190 C 
ATOM     25  N   UNL     1      -3.795   0.356   0.604  0.00  0.00    -0.077 NA
BRANCH  24  26
ATOM     26  C   UNL     1      -4.449   1.815   2.379  0.00  0.00    +0.107 A 
ATOM     27  C   UNL     1      -4.135   2.666   3.443  0.00  0.00    +0.078 A 
ATOM     28  S   UNL     1      -5.535   3.501   3.875  0.00  0.00    -0.060 S 
ATOM     29  C   UNL     1      -6.465   2.750   2.696  0.00  0.00    +0.156 A 
ATOM     30  N   UNL     1      -7.858   2.989   2.487  0.00  0.00    -0.338 N 
ATOM     31  N   UNL     1      -5.749   1.872   1.964  0.00  0.00    -0.223 NA
ATOM     32  H   UNL     1      -8.375   3.633   3.122  0.00  0.00    +0.144 HD
ATOM     33  H   UNL     1      -8.379   2.495   1.732  0.00  0.00    +0.144 HD
ENDBRANCH  24  26
BRANCH  25  34
ATOM     34  O   UNL     1      -2.968  -0.554  -0.028  0.00  0.00    -0.376 OA
BRANCH  34  35
ATOM     35  C   UNL     1      -3.364  -1.226  -1.222  0.00  0.00    +0.228 C 
ATOM     36  C   UNL     1      -3.469  -0.200  -2.364  0.00  0.00    +0.070 C 
ATOM     37  C   UNL     1      -4.720  -1.919  -1.005  0.00  0.00    +0.070 C 
BRANCH  35  38
ATOM     38  C   UNL     1      -2.326  -2.280  -1.533  0.00  0.00    +0.351 C 
ATOM     39  O   UNL     1      -1.959  -2.504  -2.721  0.00  0.00    -0.246 OA
BRANCH  38  40
ATOM     40  O   UNL     1      -1.813  -3.056  -0.499  0.00  0.00    -0.478 OA
ATOM     41  H   UNL     1      -1.099  -3.753  -0.670  0.00  0.00    +0.295 HD
ENDBRANCH  38  40
ENDBRANCH  35  38
ENDBRANCH  34  35
ENDBRANCH  25  34
ENDBRANCH   2  24
TORSDOF 10
