REMARK  Name = 
REMARK  7 active torsions:
REMARK  status: ('A' for Active; 'I' for Inactive)
REMARK    1  A    between atoms: CA_5  and  C_23
REMARK    2  A    between atoms: CA_9  and  N_10
REMARK    3  A    between atoms: C_11  and  C_13
REMARK    4  A    between atoms: C_13  and  C_17
REMARK    5  A    between atoms: N_14  and  O_15
REMARK    6  A    between atoms: O_15  and  C_16
REMARK    7  A    between atoms: C_23  and  O_24
REMARK                            x       y       z     vdW  Elec       q    Type
REMARK                         _______ _______ _______ _____ _____    ______ ____
ROOT
ATOM      1  N   UNL     1       0.083  -0.944   0.579  0.00  0.00    -0.296 N 
ATOM      2  C   UNL     1       1.483  -0.644   0.665  0.00  0.00    +0.268 C 
ATOM      3  O   UNL     1       1.972  -0.233   1.753  0.00  0.00    -0.268 OA
ATOM      4  H   UNL     1      -0.334  -1.145  -0.358  0.00  0.00    +0.150 HD
ENDROOT
BRANCH   1  13
ATOM      5  CE  UNL     1      -1.399   0.449   1.944  0.00  0.00    +0.169 C 
ATOM      6  SD  UNL     1      -0.843   1.856   0.879  0.00  0.00    -0.131 S 
ATOM      7  CG  UNL     1      -2.087   1.715  -0.470  0.00  0.00    +0.100 C 
ATOM      8  CB  UNL     1      -3.499   1.596   0.041  0.00  0.00    +0.014 C 
ATOM      9  CA  UNL     1      -3.799   0.672   0.957  0.00  0.00    +0.119 C 
ATOM     10  N   UNL     1      -2.713  -0.014   1.567  0.00  0.00    -0.249 N 
ATOM     11  C   UNL     1      -2.165  -1.384   1.454  0.00  0.00    +0.244 C 
ATOM     12  O   UNL     1      -2.640  -2.513   1.166  0.00  0.00    -0.273 OA
ATOM     13  CA  UNL     1      -0.794  -0.851   1.750  0.00  0.00    +0.191 C 
BRANCH   9  14
ATOM     14  C   UNL     1      -5.185   0.380   1.359  0.00  0.00    +0.351 C 
ATOM     15  OXT UNL     1      -5.410  -0.488   2.245  0.00  0.00    -0.244 OA
BRANCH  14  16
ATOM     16  O   UNL     1      -6.252   1.051   0.767  0.00  0.00    -0.476 OA
ATOM     17  H   UNL     1      -7.207   0.853   1.040  0.00  0.00    +0.295 HD
ENDBRANCH  14  16
ENDBRANCH   9  14
ENDBRANCH   1  13
BRANCH   2  18
ATOM     18  C   UNL     1       2.357  -0.771  -0.523  0.00  0.00    +0.190 C 
ATOM     19  N   UNL     1       2.271  -1.800  -1.313  0.00  0.00    -0.078 NA
BRANCH  18  20
ATOM     20  C   UNL     1       3.356   0.280  -0.816  0.00  0.00    +0.107 A 
ATOM     21  C   UNL     1       4.283   0.191  -1.858  0.00  0.00    +0.078 A 
ATOM     22  S   UNL     1       5.212   1.594  -1.859  0.00  0.00    -0.060 S 
ATOM     23  C   UNL     1       4.398   2.248  -0.545  0.00  0.00    +0.156 A 
ATOM     24  N   UNL     1       4.684   3.518   0.033  0.00  0.00    -0.338 N 
ATOM     25  N   UNL     1       3.425   1.431  -0.091  0.00  0.00    -0.223 NA
ATOM     26  H   UNL     1       5.445   4.116  -0.357  0.00  0.00    +0.144 HD
ATOM     27  H   UNL     1       4.134   3.859   0.852  0.00  0.00    +0.144 HD
ENDBRANCH  18  20
BRANCH  19  28
ATOM     28  O   UNL     1       1.404  -2.845  -1.080  0.00  0.00    -0.396 OA
ATOM     29  C   UNL     1       1.341  -3.937  -1.982  0.00  0.00    +0.313 C 
ENDBRANCH  19  28
ENDBRANCH   2  18
TORSDOF 6
