REMARK  Name = 
REMARK  14 active torsions:
REMARK  status: ('A' for Active; 'I' for Inactive)
REMARK    1  A    between atoms: C_4  and  S_5
REMARK    2  A    between atoms: S_5  and  C_6
REMARK    3  A    between atoms: C_8  and  C_11
REMARK    4  A    between atoms: N_14  and  C_15
REMARK    5  A    between atoms: CA_18  and  C_41
REMARK    6  A    between atoms: CA_22  and  N_23
REMARK    7  A    between atoms: C_24  and  C_26
REMARK    8  A    between atoms: C_26  and  C_31
REMARK    9  A    between atoms: N_27  and  O_28
REMARK   10  A    between atoms: O_28  and  C_29
REMARK   11  A    between atoms: C_29  and  C_30
REMARK   12  A    between atoms: N_35  and  P_36
REMARK   13  A    between atoms: P_36  and  O_37
REMARK   14  A    between atoms: P_36  and  O_38
REMARK                            x       y       z     vdW  Elec       q    Type
REMARK                         _______ _______ _______ _____ _____    ______ ____
ROOT
ATOM      1  C   UNL     1      -0.361   1.599   1.466  0.00  0.00    +0.169 C 
ATOM      2  S   UNL     1       0.018   2.910   0.249  0.00  0.00    -0.130 S 
ATOM      3  C   UNL     1      -1.638   2.768  -0.532  0.00  0.00    +0.115 C 
ATOM      4  C   UNL     1      -1.896   1.395  -1.120  0.00  0.00    +0.031 C 
ATOM      5  CA  UNL     1      -1.542   0.275  -0.455  0.00  0.00    +0.137 C 
ATOM      6  N   UNL     1      -0.779   0.419   0.751  0.00  0.00    -0.248 N 
ATOM      7  C   UNL     1       0.223  -0.358   1.519  0.00  0.00    +0.244 C 
ATOM      8  O   UNL     1       0.555  -1.570   1.594  0.00  0.00    -0.273 OA
ATOM      9  CA  UNL     1       0.737   0.917   2.118  0.00  0.00    +0.191 C 
ENDROOT
BRANCH   9  10
ATOM     10  N   UNL     1       2.058   1.236   1.573  0.00  0.00    -0.296 N 
ATOM     11  C   UNL     1       3.174   1.585   2.411  0.00  0.00    +0.270 C 
ATOM     12  O   UNL     1       2.977   1.937   3.606  0.00  0.00    -0.268 OA
ATOM     13  H   UNL     1       2.215   1.067   0.557  0.00  0.00    +0.150 HD
BRANCH  11  14
ATOM     14  C   UNL     1       4.562   1.491   1.907  0.00  0.00    +0.208 C 
ATOM     15  N   UNL     1       5.540   1.470   2.766  0.00  0.00    -0.076 NA
BRANCH  14  16
ATOM     16  C   UNL     1       4.814   1.291   0.468  0.00  0.00    +0.197 A 
ATOM     17  N   UNL     1       4.324   2.158  -0.465  0.00  0.00    -0.185 NA
ATOM     18  S   UNL     1       4.800   1.531  -1.930  0.00  0.00    +0.050 S 
ATOM     19  C   UNL     1       5.601   0.207  -1.332  0.00  0.00    +0.187 A 
ATOM     20  N   UNL     1       6.205  -0.826  -2.112  0.00  0.00    -0.230 N 
ATOM     21  N   UNL     1       5.518   0.207   0.014  0.00  0.00    -0.202 NA
ATOM     22  H   UNL     1       6.215  -0.750  -3.151  0.00  0.00    +0.160 HD
BRANCH  20  23
ATOM     23  P   UNL     1       6.861  -2.271  -1.366  0.00  0.00    +0.423 P 
ATOM     24  O   UNL     1       5.794  -2.928  -0.520  0.00  0.00    -0.237 OA
BRANCH  23  25
ATOM     25  O   UNL     1       7.361  -3.345  -2.573  0.00  0.00    -0.310 OA
ATOM     26  H   UNL     1       7.678  -4.147  -2.089  0.00  0.00    +0.221 HD
ENDBRANCH  23  25
BRANCH  23  27
ATOM     27  O   UNL     1       8.179  -1.861  -0.391  0.00  0.00    -0.310 OA
ATOM     28  H   UNL     1       8.798  -1.377  -0.996  0.00  0.00    +0.221 HD
ENDBRANCH  23  27
ENDBRANCH  20  23
ENDBRANCH  14  16
BRANCH  15  29
ATOM     29  O   UNL     1       6.875   1.377   2.420  0.00  0.00    -0.393 OA
BRANCH  29  30
ATOM     30  C   UNL     1       7.548   2.420   1.717  0.00  0.00    +0.259 C 
ATOM     31  C   UNL     1       9.018   2.063   1.557  0.00  0.00    +0.051 C 
ENDBRANCH  29  30
ENDBRANCH  15  29
ENDBRANCH  11  14
ENDBRANCH   9  10
BRANCH   5  32
ATOM     32  C   UNL     1      -1.817  -1.056  -1.025  0.00  0.00    +0.401 C 
ATOM     33  O   UNL     1      -1.508  -2.226  -0.339  0.00  0.00    -0.239 OA
ATOM     34  OXT UNL     1      -1.533  -2.100  -0.393  0.00  0.00    -0.239 OA
ENDBRANCH   5  32
BRANCH   4  35
ATOM     35  S   UNL     1      -2.692   1.317  -2.733  0.00  0.00    -0.064 S 
BRANCH  35  36
ATOM     36  C   UNL     1      -4.327   1.249  -2.019  0.00  0.00    +0.140 A 
ATOM     37  N   UNL     1      -4.942   0.101  -1.672  0.00  0.00    -0.232 NA
ATOM     38  C   UNL     1      -6.177   0.320  -1.140  0.00  0.00    +0.080 A 
ATOM     39  C   UNL     1      -6.542   1.667  -1.072  0.00  0.00    +0.076 A 
ATOM     40  S   UNL     1      -5.279   2.589  -1.691  0.00  0.00    -0.068 S 
BRANCH  38  41
ATOM     41  C   UNL     1      -7.038  -0.804  -0.694  0.00  0.00    +0.004 A 
ATOM     42  C   UNL     1      -6.743  -2.115  -1.097  0.00  0.00    +0.028 A 
ATOM     43  C   UNL     1      -7.558  -3.174  -0.689  0.00  0.00    +0.086 A 
ATOM     44  N   UNL     1      -8.635  -2.949   0.119  0.00  0.00    -0.356 N 
ATOM     45  C   UNL     1      -9.510  -4.064   0.493  0.00  0.00    +0.148 C 
ATOM     46  C   UNL     1      -8.947  -1.680   0.516  0.00  0.00    +0.086 A 
ATOM     47  C   UNL     1      -8.156  -0.596   0.128  0.00  0.00    +0.028 A 
ENDBRANCH  38  41
ENDBRANCH  35  36
ENDBRANCH   4  35
TORSDOF 12
