REMARK  Name = 
REMARK  10 active torsions:
REMARK  status: ('A' for Active; 'I' for Inactive)
REMARK    1  A    between atoms: C_4  and  C_5
REMARK    2  A    between atoms: C_5  and  O_6
REMARK    3  A    between atoms: O_6  and  C_7
REMARK    4  A    between atoms: CA_10  and  C_27
REMARK    5  A    between atoms: CA_14  and  N_15
REMARK    6  A    between atoms: C_16  and  C_18
REMARK    7  A    between atoms: C_18  and  C_22
REMARK    8  A    between atoms: N_19  and  O_20
REMARK    9  A    between atoms: O_20  and  C_21
REMARK   10  A    between atoms: C_27  and  O_28
REMARK                            x       y       z     vdW  Elec       q    Type
REMARK                         _______ _______ _______ _____ _____    ______ ____
ROOT
ATOM      1  C   UNL     1       1.244  -1.636   0.153  0.00  0.00    +0.169 C 
ATOM      2  S   UNL     1       0.393  -0.812  -1.233  0.00  0.00    -0.131 S 
ATOM      3  C   UNL     1       1.973  -0.558  -2.133  0.00  0.00    +0.107 C 
ATOM      4  C   UNL     1       2.987   0.298  -1.379  0.00  0.00    +0.006 C 
ATOM      5  CA  UNL     1       3.132   0.166  -0.030  0.00  0.00    +0.125 C 
ATOM      6  N   UNL     1       2.234  -0.716   0.649  0.00  0.00    -0.249 N 
ATOM      7  C   UNL     1       1.617  -0.822   1.994  0.00  0.00    +0.244 C 
ATOM      8  O   UNL     1       1.841  -0.318   3.125  0.00  0.00    -0.273 OA
ATOM      9  CA  UNL     1       0.571  -1.736   1.432  0.00  0.00    +0.191 C 
ENDROOT
BRANCH   9  10
ATOM     10  N   UNL     1      -0.764  -1.136   1.475  0.00  0.00    -0.296 N 
ATOM     11  C   UNL     1      -1.911  -1.813   0.936  0.00  0.00    +0.270 C 
ATOM     12  O   UNL     1      -1.788  -2.984   0.485  0.00  0.00    -0.268 OA
ATOM     13  H   UNL     1      -0.912  -0.268   2.039  0.00  0.00    +0.150 HD
BRANCH  11  14
ATOM     14  C   UNL     1      -3.235  -1.148   0.889  0.00  0.00    +0.206 C 
ATOM     15  N   UNL     1      -3.346   0.110   0.582  0.00  0.00    -0.076 NA
BRANCH  14  16
ATOM     16  C   UNL     1      -4.472  -1.920   1.123  0.00  0.00    +0.161 A 
ATOM     17  C   UNL     1      -4.565  -3.208   1.617  0.00  0.00    +0.052 A 
ATOM     18  C   UNL     1      -5.911  -3.499   1.650  0.00  0.00    +0.042 A 
ATOM     19  C   UNL     1      -6.557  -2.380   1.166  0.00  0.00    +0.196 A 
ATOM     20  O   UNL     1      -5.675  -1.456   0.866  0.00  0.00    -0.461 OA
ENDBRANCH  14  16
BRANCH  15  21
ATOM     21  O   UNL     1      -2.260   0.899   0.267  0.00  0.00    -0.396 OA
ATOM     22  C   UNL     1      -2.432   2.268  -0.050  0.00  0.00    +0.313 C 
ENDBRANCH  15  21
ENDBRANCH  11  14
ENDBRANCH   9  10
BRANCH   5  23
ATOM     23  C   UNL     1       4.131   0.899   0.792  0.00  0.00    +0.351 C 
ATOM     24  OXT UNL     1       4.731   1.918   0.357  0.00  0.00    -0.244 OA
BRANCH  23  25
ATOM     25  O   UNL     1       4.397   0.463   2.086  0.00  0.00    -0.476 OA
ATOM     26  H   UNL     1       5.029   0.976   2.690  0.00  0.00    +0.295 HD
ENDBRANCH  23  25
ENDBRANCH   5  23
BRANCH   4  27
ATOM     27  C   UNL     1       3.915   1.141  -2.229  0.00  0.00    +0.268 C 
BRANCH  27  28
ATOM     28  O   UNL     1       3.704   2.538  -2.024  0.00  0.00    -0.446 OA
BRANCH  28  29
ATOM     29  C   UNL     1       2.565   3.225  -2.455  0.00  0.00    +0.398 C 
ATOM     30  N   UNL     1       2.580   4.651  -2.484  0.00  0.00    -0.295 N 
ATOM     31  O   UNL     1       1.523   2.604  -2.804  0.00  0.00    -0.227 OA
ATOM     32  H   UNL     1       1.760   5.177  -2.863  0.00  0.00    +0.148 HD
ATOM     33  H   UNL     1       3.451   5.173  -2.232  0.00  0.00    +0.148 HD
ENDBRANCH  28  29
ENDBRANCH  27  28
ENDBRANCH   4  27
TORSDOF 9
