REMARK  Name = 
REMARK  6 active torsions:
REMARK  status: ('A' for Active; 'I' for Inactive)
REMARK    1  A    between atoms: C_1  and  C_2
REMARK    2  A    between atoms: C_5  and  C_8
REMARK    3  A    between atoms: C_10  and  C_23
REMARK    4  A    between atoms: N_12  and  C_13
REMARK    5  A    between atoms: C_16  and  S_19
REMARK    6  A    between atoms: S_19  and  N_20
REMARK                            x       y       z     vdW  Elec       q    Type
REMARK                         _______ _______ _______ _____ _____    ______ ____
ROOT
ATOM      1  C   UNL     1      -1.228   1.609   0.204  0.00  0.00    +0.075 A 
ATOM      2  C   UNL     1      -1.942   2.765   0.456  0.00  0.00    +0.062 A 
ATOM      3  C   UNL     1      -0.979   3.695   0.798  0.00  0.00    +0.166 A 
ATOM      4  N   UNL     1       0.246   3.139   0.723  0.00  0.00    -0.162 NA
ATOM      5  N   UNL     1       0.092   1.873   0.366  0.00  0.00    -0.232 N 
ENDROOT
BRANCH   1  10
ATOM      6  C   UNL     1      -3.647  -3.532  -0.939  0.00  0.00    +0.044 C 
ATOM      7  C   UNL     1      -2.999  -2.207  -0.665  0.00  0.00    -0.050 A 
ATOM      8  C   UNL     1      -1.935  -2.114   0.244  0.00  0.00    +0.004 A 
ATOM      9  C   UNL     1      -1.355  -0.874   0.527  0.00  0.00    +0.010 A 
ATOM     10  C   UNL     1      -1.831   0.291  -0.096  0.00  0.00    +0.000 A 
ATOM     11  C   UNL     1      -2.920   0.201  -0.978  0.00  0.00    +0.010 A 
ATOM     12  C   UNL     1      -3.500  -1.039  -1.260  0.00  0.00    +0.004 A 
ENDBRANCH   1  10
BRANCH   5  13
ATOM     13  C   UNL     1       1.207   0.999   0.120  0.00  0.00    +0.066 A 
ATOM     14  C   UNL     1       2.300   0.997   1.000  0.00  0.00    +0.030 A 
ATOM     15  C   UNL     1       3.394   0.159   0.766  0.00  0.00    +0.030 A 
ATOM     16  C   UNL     1       3.417  -0.673  -0.361  0.00  0.00    +0.105 A 
ATOM     17  C   UNL     1       2.335  -0.663  -1.251  0.00  0.00    +0.030 A 
ATOM     18  C   UNL     1       1.241   0.175  -1.018  0.00  0.00    +0.030 A 
BRANCH  16  19
ATOM     19  S   UNL     1       4.784  -1.746  -0.644  0.00  0.00    +0.056 S 
ATOM     20  O   UNL     1       4.985  -1.934  -2.122  0.00  0.00    -0.153 OA
ATOM     21  O   UNL     1       6.033  -1.145  -0.062  0.00  0.00    -0.153 OA
BRANCH  19  22
ATOM     22  N   UNL     1       4.482  -3.278   0.096  0.00  0.00    -0.204 NA
ATOM     23  H   UNL     1       3.588  -3.639  -0.305  0.00  0.00    +0.144 HD
ATOM     24  H   UNL     1       4.306  -3.097   1.110  0.00  0.00    +0.144 HD
ENDBRANCH  19  22
ENDBRANCH  16  19
ENDBRANCH   5  13
BRANCH   3  25
ATOM     25  C   UNL     1      -1.227   5.135   1.116  0.00  0.00    +0.436 C 
ATOM     26  F   UNL     1      -2.347   5.254   1.919  0.00  0.00    -0.164 F 
ATOM     27  F   UNL     1      -0.138   5.668   1.782  0.00  0.00    -0.164 F 
ATOM     28  F   UNL     1      -1.430   5.836  -0.057  0.00  0.00    -0.164 F 
ENDBRANCH   3  25
TORSDOF 5
