REMARK  Name = 
REMARK  10 active torsions:
REMARK  status: ('A' for Active; 'I' for Inactive)
REMARK    1  A    between atoms: C_4  and  C_5
REMARK    2  A    between atoms: C_5  and  O_6
REMARK    3  A    between atoms: O_6  and  C_7
REMARK    4  A    between atoms: C_7  and  C_8
REMARK    5  A    between atoms: CA_10  and  C_26
REMARK    6  A    between atoms: CA_14  and  N_15
REMARK    7  A    between atoms: C_16  and  CA_18
REMARK    8  A    between atoms: CA_18  and  N_19
REMARK    9  A    between atoms: CA_18  and  C_20
REMARK   10  A    between atoms: C_26  and  O_27
REMARK                            x       y       z     vdW  Elec       q    Type
REMARK                         _______ _______ _______ _____ _____    ______ ____
ROOT
ATOM      1  C   UNL     1      -0.280  -1.859   1.332  0.00  0.00    +0.169 C 
ATOM      2  S   UNL     1       0.295  -0.129   1.276  0.00  0.00    -0.131 S 
ATOM      3  C   UNL     1      -1.311   0.507   1.903  0.00  0.00    +0.107 C 
ATOM      4  C   UNL     1      -2.504   0.167   1.016  0.00  0.00    +0.006 C 
ATOM      5  CA  UNL     1      -2.583  -1.044   0.398  0.00  0.00    +0.125 C 
ATOM      6  N   UNL     1      -1.478  -1.938   0.539  0.00  0.00    -0.249 N 
ATOM      7  C   UNL     1      -0.839  -3.000  -0.272  0.00  0.00    +0.244 C 
ATOM      8  O   UNL     1      -1.185  -3.703  -1.257  0.00  0.00    -0.273 OA
ATOM      9  CA  UNL     1       0.415  -2.847   0.535  0.00  0.00    +0.191 C 
ENDROOT
BRANCH   9  10
ATOM     10  N   UNL     1       1.518  -2.314  -0.269  0.00  0.00    -0.300 N 
ATOM     11  C   UNL     1       2.864  -2.297   0.224  0.00  0.00    +0.235 C 
ATOM     12  O   UNL     1       3.136  -2.835   1.333  0.00  0.00    -0.274 OA
ATOM     13  H   UNL     1       1.312  -1.839  -1.177  0.00  0.00    +0.150 HD
BRANCH  11  14
ATOM     14  CA  UNL     1       3.939  -1.582  -0.562  0.00  0.00    +0.168 C 
BRANCH  14  15
ATOM     15  C   UNL     1       3.784  -0.083  -0.432  0.00  0.00    -0.022 A 
ATOM     16  C   UNL     1       3.774   0.537   0.832  0.00  0.00    +0.005 A 
ATOM     17  C   UNL     1       3.626   1.924   0.940  0.00  0.00    +0.000 A 
ATOM     18  C   UNL     1       3.492   2.707  -0.211  0.00  0.00    +0.000 A 
ATOM     19  C   UNL     1       3.511   2.104  -1.469  0.00  0.00    +0.000 A 
ATOM     20  C   UNL     1       3.659   0.716  -1.582  0.00  0.00    +0.005 A 
ENDBRANCH  14  15
BRANCH  14  21
ATOM     21  N   UNL     1       5.287  -1.987  -0.155  0.00  0.00    -0.316 NA
ATOM     22  H1  UNL     1       5.425  -1.791   0.862  0.00  0.00    +0.119 HD
ATOM     23  H2  UNL     1       5.378  -3.019  -0.290  0.00  0.00    +0.119 HD
ENDBRANCH  14  21
ENDBRANCH  11  14
ENDBRANCH   9  10
BRANCH   5  24
ATOM     24  C   UNL     1      -3.723  -1.482  -0.445  0.00  0.00    +0.351 C 
ATOM     25  OXT UNL     1      -3.911  -2.715  -0.631  0.00  0.00    -0.244 OA
BRANCH  24  26
ATOM     26  O   UNL     1      -4.576  -0.569  -1.060  0.00  0.00    -0.476 OA
ATOM     27  H   UNL     1      -5.353  -0.882  -1.627  0.00  0.00    +0.295 HD
ENDBRANCH  24  26
ENDBRANCH   5  24
BRANCH   4  28
ATOM     28  C   UNL     1      -3.623   1.179   0.967  0.00  0.00    +0.266 C 
BRANCH  28  29
ATOM     29  O   UNL     1      -3.584   1.875  -0.273  0.00  0.00    -0.460 OA
BRANCH  29  30
ATOM     30  C   UNL     1      -4.528   2.845  -0.623  0.00  0.00    +0.304 C 
ATOM     31  C   UNL     1      -4.426   3.533  -1.938  0.00  0.00    +0.136 C 
ATOM     32  O   UNL     1      -5.451   3.164   0.173  0.00  0.00    -0.251 OA
ENDBRANCH  29  30
ENDBRANCH  28  29
ENDBRANCH   4  28
TORSDOF 9
