REMARK  Name = 
REMARK  7 active torsions:
REMARK  status: ('A' for Active; 'I' for Inactive)
REMARK    1  A    between atoms: C_4  and  C_5
REMARK    2  A    between atoms: CA_6  and  C_22
REMARK    3  A    between atoms: CA_10  and  N_11
REMARK    4  A    between atoms: C_12  and  CA_14
REMARK    5  A    between atoms: CA_14  and  N_15
REMARK    6  A    between atoms: CA_14  and  C_16
REMARK    7  A    between atoms: C_22  and  O_23
REMARK                            x       y       z     vdW  Elec       q    Type
REMARK                         _______ _______ _______ _____ _____    ______ ____
ROOT
ATOM      1  C   UNL     1      -1.814  -0.147  -1.141  0.00  0.00    +0.169 C 
ATOM      2  S   UNL     1      -1.814  -1.746  -0.262  0.00  0.00    -0.131 S 
ATOM      3  C   UNL     1      -3.650  -1.817  -0.227  0.00  0.00    +0.103 C 
ATOM      4  C   UNL     1      -4.299  -0.650   0.510  0.00  0.00    -0.034 C 
ATOM      5  C   UNL     1      -5.577  -0.935   1.260  0.00  0.00    +0.042 C 
ATOM      6  CA  UNL     1      -3.795   0.608   0.394  0.00  0.00    +0.122 C 
ATOM      7  N   UNL     1      -2.587   0.777  -0.352  0.00  0.00    -0.249 N 
ATOM      8  C   UNL     1      -1.418   1.686  -0.321  0.00  0.00    +0.244 C 
ATOM      9  O   UNL     1      -1.175   2.815   0.180  0.00  0.00    -0.273 OA
ATOM     10  CA  UNL     1      -0.622   0.673  -1.088  0.00  0.00    +0.191 C 
ENDROOT
BRANCH  10  11
ATOM     11  N   UNL     1       0.469   0.114  -0.285  0.00  0.00    -0.300 N 
ATOM     12  C   UNL     1       1.419  -0.803  -0.852  0.00  0.00    +0.235 C 
ATOM     13  O   UNL     1       1.329  -1.121  -2.069  0.00  0.00    -0.274 OA
ATOM     14  H   UNL     1       0.572   0.418   0.709  0.00  0.00    +0.150 HD
BRANCH  12  15
ATOM     15  CA  UNL     1       2.557  -1.371  -0.037  0.00  0.00    +0.168 C 
BRANCH  15  16
ATOM     16  C   UNL     1       3.796  -0.499  -0.138  0.00  0.00    -0.022 A 
ATOM     17  C   UNL     1       5.018  -1.061  -0.551  0.00  0.00    +0.005 A 
ATOM     18  C   UNL     1       6.169  -0.271  -0.636  0.00  0.00    +0.000 A 
ATOM     19  C   UNL     1       6.114   1.085  -0.305  0.00  0.00    +0.000 A 
ATOM     20  C   UNL     1       4.910   1.653   0.115  0.00  0.00    +0.000 A 
ATOM     21  C   UNL     1       3.756   0.868   0.201  0.00  0.00    +0.005 A 
ENDBRANCH  15  16
BRANCH  15  22
ATOM     22  N   UNL     1       2.163  -1.585   1.359  0.00  0.00    -0.316 NA
ATOM     23  H1  UNL     1       2.875  -2.207   1.807  0.00  0.00    +0.119 HD
ATOM     24  H2  UNL     1       2.186  -0.683   1.886  0.00  0.00    +0.119 HD
ENDBRANCH  15  22
ENDBRANCH  12  15
ENDBRANCH  10  11
BRANCH   6  25
ATOM     25  C   UNL     1      -4.385   1.808   1.038  0.00  0.00    +0.351 C 
ATOM     26  OXT UNL     1      -5.132   1.715   2.049  0.00  0.00    -0.244 OA
BRANCH  25  27
ATOM     27  O   UNL     1      -4.084   3.069   0.533  0.00  0.00    -0.476 OA
ATOM     28  H   UNL     1      -4.464   3.905   0.961  0.00  0.00    +0.295 HD
ENDBRANCH  25  27
ENDBRANCH   6  25
TORSDOF 6
