REMARK  Name = 
REMARK  10 active torsions:
REMARK  status: ('A' for Active; 'I' for Inactive)
REMARK    1  A    between atoms: C_4  and  C_5
REMARK    2  A    between atoms: C_5  and  O_6
REMARK    3  A    between atoms: O_6  and  C_7
REMARK    4  A    between atoms: C_7  and  C_8
REMARK    5  A    between atoms: CA_10  and  C_26
REMARK    6  A    between atoms: CA_14  and  N_15
REMARK    7  A    between atoms: C_16  and  C_18
REMARK    8  A    between atoms: C_18  and  S_19
REMARK    9  A    between atoms: S_19  and  C_20
REMARK   10  A    between atoms: C_26  and  O_27
REMARK                            x       y       z     vdW  Elec       q    Type
REMARK                         _______ _______ _______ _____ _____    ______ ____
ROOT
ATOM      1  C   UNL     1      -0.378  -1.601   0.094  0.00  0.00    +0.169 C 
ATOM      2  S   UNL     1       0.224   0.080   0.563  0.00  0.00    -0.131 S 
ATOM      3  C   UNL     1      -0.965   1.083  -0.417  0.00  0.00    +0.107 C 
ATOM      4  C   UNL     1      -2.413   0.685  -0.182  0.00  0.00    +0.006 C 
ATOM      5  CA  UNL     1      -2.751  -0.615  -0.364  0.00  0.00    +0.125 C 
ATOM      6  N   UNL     1      -1.675  -1.530  -0.535  0.00  0.00    -0.249 N 
ATOM      7  C   UNL     1      -1.127  -2.287  -1.682  0.00  0.00    +0.244 C 
ATOM      8  O   UNL     1      -1.592  -2.719  -2.769  0.00  0.00    -0.273 OA
ATOM      9  CA  UNL     1       0.228  -2.264  -1.040  0.00  0.00    +0.191 C 
ENDROOT
BRANCH   9  10
ATOM     10  N   UNL     1       1.169  -1.436  -1.798  0.00  0.00    -0.301 N 
ATOM     11  C   UNL     1       2.578  -1.464  -1.538  0.00  0.00    +0.224 C 
ATOM     12  O   UNL     1       3.048  -2.233  -0.655  0.00  0.00    -0.275 OA
ATOM     13  H   UNL     1       0.807  -0.775  -2.523  0.00  0.00    +0.150 HD
BRANCH  11  14
ATOM     14  C   UNL     1       3.497  -0.551  -2.288  0.00  0.00    +0.170 C 
BRANCH  14  15
ATOM     15  S   UNL     1       3.481   1.114  -1.540  0.00  0.00    -0.116 S 
BRANCH  15  16
ATOM     16  C   UNL     1       4.657   0.716  -0.243  0.00  0.00    +0.011 A 
ATOM     17  C   UNL     1       6.029   0.859  -0.473  0.00  0.00    +0.034 A 
ATOM     18  C   UNL     1       6.930   0.550   0.549  0.00  0.00    +0.112 A 
ATOM     19  N   UNL     1       6.472   0.115   1.754  0.00  0.00    -0.263 NA
ATOM     20  C   UNL     1       5.142  -0.024   2.002  0.00  0.00    +0.112 A 
ATOM     21  C   UNL     1       4.209   0.278   1.008  0.00  0.00    +0.034 A 
ENDBRANCH  15  16
ENDBRANCH  14  15
ENDBRANCH  11  14
ENDBRANCH   9  10
BRANCH   5  22
ATOM     22  C   UNL     1      -4.129  -1.164  -0.369  0.00  0.00    +0.351 C 
ATOM     23  OXT UNL     1      -5.142  -0.433  -0.207  0.00  0.00    -0.244 OA
BRANCH  22  24
ATOM     24  O   UNL     1      -4.307  -2.532  -0.561  0.00  0.00    -0.476 OA
ATOM     25  H   UNL     1      -5.234  -2.941  -0.571  0.00  0.00    +0.295 HD
ENDBRANCH  22  24
ENDBRANCH   5  22
BRANCH   4  26
ATOM     26  C   UNL     1      -3.413   1.767   0.146  0.00  0.00    +0.266 C 
BRANCH  26  27
ATOM     27  O   UNL     1      -3.980   1.524   1.429  0.00  0.00    -0.460 OA
BRANCH  27  28
ATOM     28  C   UNL     1      -4.955   2.351   1.993  0.00  0.00    +0.304 C 
ATOM     29  C   UNL     1      -5.538   2.000   3.320  0.00  0.00    +0.136 C 
ATOM     30  O   UNL     1      -5.378   3.365   1.373  0.00  0.00    -0.251 OA
ENDBRANCH  27  28
ENDBRANCH  26  27
ENDBRANCH   4  26
TORSDOF 9
