REMARK  Name = 
REMARK  44 active torsions:
REMARK  status: ('A' for Active; 'I' for Inactive)
REMARK    1  A    between atoms: C_2  and  N_3
REMARK    2  A    between atoms: C_2  and  C_45
REMARK    3  A    between atoms: C_2  and  C_48
REMARK    4  A    between atoms: C_4  and  C_6
REMARK    5  A    between atoms: C_6  and  C_7
REMARK    6  A    between atoms: C_6  and  N_19
REMARK    7  A    between atoms: C_7  and  C_8
REMARK    8  A    between atoms: C_11  and  O_12
REMARK    9  A    between atoms: O_12  and  S_13
REMARK   10  A    between atoms: S_13  and  O_14
REMARK   11  A    between atoms: C_20  and  C_22
REMARK   12  A    between atoms: C_22  and  C_23
REMARK   13  A    between atoms: C_22  and  N_27
REMARK   14  A    between atoms: C_23  and  C_24
REMARK   15  A    between atoms: C_24  and  O_25
REMARK   16  A    between atoms: C_28  and  C_30
REMARK   17  A    between atoms: C_30  and  C_31
REMARK   18  A    between atoms: C_30  and  N_36
REMARK   19  A    between atoms: C_31  and  C_32
REMARK   20  A    between atoms: C_32  and  C_33
REMARK   21  A    between atoms: C_37  and  C_39
REMARK   22  A    between atoms: C_45  and  C_46
REMARK   23  A    between atoms: C_45  and  O_47
REMARK   24  A    between atoms: N_50  and  C_51
REMARK   25  A    between atoms: C_51  and  C_52
REMARK   26  A    between atoms: N_54  and  C_55
REMARK   27  A    between atoms: C_55  and  C_56
REMARK   28  A    between atoms: C_55  and  C_66
REMARK   29  A    between atoms: C_56  and  C_57
REMARK   30  A    between atoms: N_68  and  C_69
REMARK   31  A    between atoms: C_69  and  C_70
REMARK   32  A    between atoms: C_69  and  C_74
REMARK   33  A    between atoms: C_70  and  C_71
REMARK   34  A    between atoms: C_71  and  S_72
REMARK   35  A    between atoms: S_72  and  C_73
REMARK   36  A    between atoms: N_76  and  C_77
REMARK   37  A    between atoms: C_77  and  C_78
REMARK   38  A    between atoms: C_77  and  C_82
REMARK   39  A    between atoms: C_78  and  C_79
REMARK   40  A    between atoms: C_79  and  O_80
REMARK   41  A    between atoms: N_84  and  C_85
REMARK   42  A    between atoms: C_85  and  C_86
REMARK   43  A    between atoms: C_85  and  C_93
REMARK   44  A    between atoms: C_86  and  C_87
REMARK                            x       y       z     vdW  Elec       q    Type
REMARK                         _______ _______ _______ _____ _____    ______ ____
ROOT
ATOM      1  C   UNL     1       4.541  -5.227   1.513  0.00  0.00    +0.236 C 
ATOM      2  O   UNL     1       4.139  -5.761   2.544  0.00  0.00    -0.274 OA
ATOM      3  N   UNL     1       5.412  -5.933   0.713  0.00  0.00    -0.305 N 
ATOM      4  H   UNL     1       5.619  -6.850   1.088  0.00  0.00    +0.149 HD
ENDROOT
BRANCH   1   5
ATOM      5  C   UNL     1       4.049  -3.821   1.127  0.00  0.00    +0.187 C 
BRANCH   5   6
ATOM      6  N   UNL     1       3.004  -3.245   1.962  0.00  0.00    -0.300 N 
ATOM      7  C   UNL     1       1.847  -2.710   1.545  0.00  0.00    +0.234 C 
ATOM      8  O   UNL     1       0.937  -2.593   2.354  0.00  0.00    -0.274 OA
ATOM      9  H   UNL     1       3.198  -2.931   2.900  0.00  0.00    +0.150 HD
BRANCH   7  10
ATOM     10  C   UNL     1       1.691  -2.580   0.060  0.00  0.00    +0.163 C 
BRANCH  10  11
ATOM     11  N   UNL     1       0.229  -1.698  -0.493  0.00  0.00    -0.302 N 
ATOM     12  C   UNL     1      -1.020  -2.017  -1.544  0.00  0.00    +0.234 C 
ATOM     13  O   UNL     1      -1.738  -1.037  -1.787  0.00  0.00    -0.274 OA
ATOM     14  H   UNL     1       0.375  -0.710  -0.309  0.00  0.00    +0.150 HD
BRANCH  12  15
ATOM     15  C   UNL     1      -1.277  -3.727  -2.453  0.00  0.00    +0.169 C 
BRANCH  15  16
ATOM     16  N   UNL     1      -2.513  -4.014  -3.089  0.00  0.00    -0.302 N 
ATOM     17  C   UNL     1      -3.520  -4.689  -2.398  0.00  0.00    +0.234 C 
ATOM     18  O   UNL     1      -4.431  -5.143  -3.096  0.00  0.00    -0.274 OA
ATOM     19  H   UNL     1      -2.543  -3.989  -4.099  0.00  0.00    +0.150 HD
BRANCH  17  20
ATOM     20  C   UNL     1      -3.399  -5.014  -0.728  0.00  0.00    +0.159 C 
BRANCH  20  21
ATOM     21  N   UNL     1      -2.910  -6.378  -0.418  0.00  0.00    -0.302 N 
ATOM     22  C   UNL     1      -3.530  -7.492   0.069  0.00  0.00    +0.234 C 
ATOM     23  O   UNL     1      -2.860  -8.498   0.319  0.00  0.00    -0.274 OA
ATOM     24  H   UNL     1      -1.906  -6.523  -0.538  0.00  0.00    +0.150 HD
BRANCH  22  25
ATOM     25  C   UNL     1      -5.031  -7.460   0.346  0.00  0.00    +0.159 C 
ATOM     26  C   UNL     1      -5.844  -6.912  -0.813  0.00  0.00    +0.041 C 
ATOM     27  C   UNL     1      -6.897  -6.026  -0.166  0.00  0.00    +0.098 C 
ATOM     28  C   UNL     1      -6.299  -5.671   1.172  0.00  0.00    +0.214 C 
ATOM     29  O   UNL     1      -6.628  -4.748   1.898  0.00  0.00    -0.276 OA
ATOM     30  N   UNL     1      -5.305  -6.575   1.451  0.00  0.00    -0.304 N 
ATOM     31  H   UNL     1      -4.779  -6.542   2.317  0.00  0.00    +0.149 HD
ENDBRANCH  22  25
ENDBRANCH  20  21
BRANCH  20  32
ATOM     32  C   UNL     1      -2.810  -3.952   0.274  0.00  0.00    +0.041 C 
BRANCH  32  33
ATOM     33  C   UNL     1      -1.280  -3.933   0.629  0.00  0.00    +0.098 C 
BRANCH  33  34
ATOM     34  C   UNL     1      -0.316  -4.445  -0.425  0.00  0.00    +0.211 C 
ATOM     35  N   UNL     1       0.522  -3.546  -1.477  0.00  0.00    -0.329 N 
ATOM     36  O   UNL     1      -0.572  -5.642  -0.654  0.00  0.00    -0.276 OA
ATOM     37  H   UNL     1       0.561  -3.355  -2.512  0.00  0.00    +0.145 HD
ATOM     38  H   UNL     1       0.717  -2.538  -1.412  0.00  0.00    +0.145 HD
ENDBRANCH  33  34
ENDBRANCH  32  33
ENDBRANCH  20  32
ENDBRANCH  17  20
ENDBRANCH  15  16
BRANCH  15  39
ATOM     39  C   UNL     1       0.051  -5.153  -2.778  0.00  0.00    +0.152 C 
BRANCH  39  40
ATOM     40  C   UNL     1       1.496  -5.604  -1.717  0.00  0.00    +0.307 C 
ATOM     41  O   UNL     1       2.638  -4.985  -1.708  0.00  0.00    -0.251 OA
BRANCH  40  42
ATOM     42  O   UNL     1       1.542  -6.409  -0.650  0.00  0.00    -0.481 OA
ATOM     43  H   UNL     1       1.038  -7.234  -0.652  0.00  0.00    +0.295 HD
ENDBRANCH  40  42
ENDBRANCH  39  40
ENDBRANCH  15  39
ENDBRANCH  12  15
ENDBRANCH  10  11
BRANCH  10  44
ATOM     44  C   UNL     1       2.953  -2.464  -1.042  0.00  0.00    +0.067 C 
BRANCH  44  45
ATOM     45  C   UNL     1       2.810  -2.272  -2.525  0.00  0.00    -0.045 A 
ATOM     46  C   UNL     1       2.652  -0.960  -2.859  0.00  0.00    +0.007 A 
ATOM     47  C   UNL     1       2.176  -0.668  -4.112  0.00  0.00    +0.049 A 
ATOM     48  C   UNL     1       1.984  -1.674  -5.070  0.00  0.00    +0.159 A 
ATOM     49  C   UNL     1       2.225  -2.992  -4.757  0.00  0.00    +0.049 A 
ATOM     50  C   UNL     1       2.754  -3.269  -3.527  0.00  0.00    +0.007 A 
BRANCH  48  51
ATOM     51  O   UNL     1       1.624  -1.274  -6.323  0.00  0.00    -0.325 OA
BRANCH  51  52
ATOM     52  S   UNL     1       1.420  -2.338  -7.545  0.00  0.00    +0.251 S 
ATOM     53  O   UNL     1       0.363  -3.257  -7.189  0.00  0.00    -0.108 OA
ATOM     54  O   UNL     1       1.384  -1.572  -8.773  0.00  0.00    -0.108 OA
BRANCH  52  55
ATOM     55  O   UNL     1       2.801  -3.188  -7.602  0.00  0.00    -0.222 OA
ATOM     56  H   UNL     1       3.542  -2.618  -7.884  0.00  0.00    +0.248 HD
ENDBRANCH  52  55
ENDBRANCH  51  52
ENDBRANCH  48  51
ENDBRANCH  44  45
ENDBRANCH  10  44
ENDBRANCH   7  10
ENDBRANCH   5   6
BRANCH   5  57
ATOM     57  C   UNL     1       5.046  -2.688   0.981  0.00  0.00    +0.141 C 
ATOM     58  C   UNL     1       5.495  -2.411   2.471  0.00  0.00    +0.040 C 
BRANCH  57  59
ATOM     59  O   UNL     1       5.790  -2.886  -0.221  0.00  0.00    -0.390 OA
ATOM     60  H   UNL     1       6.524  -3.503  -0.160  0.00  0.00    +0.210 HD
ENDBRANCH  57  59
ENDBRANCH   5  57
ENDBRANCH   1   5
BRANCH   3  61
ATOM     61  C   UNL     1       5.981  -5.671  -0.606  0.00  0.00    +0.200 C 
BRANCH  61  62
ATOM     62  C   UNL     1       7.485  -5.449  -0.545  0.00  0.00    +0.231 C 
ATOM     63  O   UNL     1       8.232  -6.021  -1.332  0.00  0.00    -0.274 OA
ATOM     64  N   UNL     1       8.005  -4.454   0.236  0.00  0.00    -0.302 N 
ATOM     65  H   UNL     1       8.940  -4.177  -0.060  0.00  0.00    +0.150 HD
BRANCH  64  66
ATOM     66  C   UNL     1       7.629  -3.898   1.548  0.00  0.00    +0.163 C 
BRANCH  66  67
ATOM     67  C   UNL     1       7.822  -2.135   1.203  0.00  0.00    +0.234 C 
ATOM     68  O   UNL     1       7.078  -1.265   0.746  0.00  0.00    -0.274 OA
ATOM     69  N   UNL     1       9.036  -1.598   1.228  0.00  0.00    -0.302 N 
ATOM     70  H   UNL     1       8.931  -0.617   1.488  0.00  0.00    +0.150 HD
BRANCH  69  71
ATOM     71  C   UNL     1       9.961  -2.436   1.812  0.00  0.00    +0.160 C 
BRANCH  71  72
ATOM     72  C   UNL     1       9.873  -2.041   3.185  0.00  0.00    +0.234 C 
ATOM     73  O   UNL     1       9.918  -2.784   4.156  0.00  0.00    -0.274 OA
ATOM     74  N   UNL     1      10.345  -0.779   3.143  0.00  0.00    -0.302 N 
ATOM     75  H   UNL     1      11.230  -1.226   3.422  0.00  0.00    +0.150 HD
BRANCH  74  76
ATOM     76  C   UNL     1      10.790   0.585   2.468  0.00  0.00    +0.169 C 
BRANCH  76  77
ATOM     77  C   UNL     1      12.362   1.163   2.386  0.00  0.00    +0.234 C 
ATOM     78  O   UNL     1      13.015   1.091   1.333  0.00  0.00    -0.274 OA
ATOM     79  N   UNL     1      13.075   1.611   3.458  0.00  0.00    -0.302 N 
ATOM     80  H   UNL     1      14.047   1.388   3.252  0.00  0.00    +0.150 HD
BRANCH  79  81
ATOM     81  C   UNL     1      12.733   1.852   4.889  0.00  0.00    +0.163 C 
BRANCH  81  82
ATOM     82  C   UNL     1      12.744   3.349   5.326  0.00  0.00    +0.231 C 
ATOM     83  N   UNL     1      11.630   3.885   5.910  0.00  0.00    -0.328 N 
ATOM     84  O   UNL     1      13.678   4.113   5.096  0.00  0.00    -0.274 OA
ATOM     85  H   UNL     1      11.573   4.869   5.661  0.00  0.00    +0.145 HD
ATOM     86  H   UNL     1      10.726   3.454   5.717  0.00  0.00    +0.145 HD
ENDBRANCH  81  82
BRANCH  81  87
ATOM     87  C   UNL     1      13.384   1.004   5.993  0.00  0.00    +0.067 C 
BRANCH  87  88
ATOM     88  C   UNL     1      14.806   1.347   6.184  0.00  0.00    -0.045 A 
ATOM     89  C   UNL     1      15.569   1.885   5.144  0.00  0.00    +0.004 A 
ATOM     90  C   UNL     1      16.894   2.176   5.286  0.00  0.00    +0.000 A 
ATOM     91  C   UNL     1      17.433   2.072   6.547  0.00  0.00    +0.000 A 
ATOM     92  C   UNL     1      16.679   1.569   7.616  0.00  0.00    +0.000 A 
ATOM     93  C   UNL     1      15.367   1.167   7.434  0.00  0.00    +0.004 A 
ENDBRANCH  87  88
ENDBRANCH  81  87
ENDBRANCH  79  81
ENDBRANCH  76  77
BRANCH  76  94
ATOM     94  C   UNL     1       9.843   1.689   2.707  0.00  0.00    +0.152 C 
BRANCH  94  95
ATOM     95  C   UNL     1      10.039   2.528   3.884  0.00  0.00    +0.307 C 
ATOM     96  O   UNL     1       9.713   2.222   5.023  0.00  0.00    -0.251 OA
BRANCH  95  97
ATOM     97  O   UNL     1      10.680   3.683   3.631  0.00  0.00    -0.481 OA
ATOM     98  H   UNL     1      11.191   3.822   2.807  0.00  0.00    +0.295 HD
ENDBRANCH  95  97
ENDBRANCH  94  95
ENDBRANCH  76  94
ENDBRANCH  74  76
ENDBRANCH  71  72
BRANCH  71  99
ATOM     99  C   UNL     1      11.298  -2.564   1.173  0.00  0.00    +0.042 C 
BRANCH  99 100
ATOM    100  C   UNL     1      12.211  -1.437   1.520  0.00  0.00    +0.071 C 
BRANCH 100 101
ATOM    101  S   UNL     1      12.744  -1.319   3.727  0.00  0.00    -0.164 S 
ATOM    102  C   UNL     1      11.086  -0.558   5.153  0.00  0.00    +0.084 C 
ENDBRANCH 100 101
ENDBRANCH  99 100
ENDBRANCH  71  99
ENDBRANCH  69  71
ENDBRANCH  66  67
BRANCH  66 103
ATOM    103  C   UNL     1       8.117  -4.840   3.013  0.00  0.00    +0.069 C 
BRANCH 103 104
ATOM    104  C   UNL     1       9.739  -5.859   3.151  0.00  0.00    -0.020 A 
ATOM    105  C   UNL     1      10.539  -4.847   2.781  0.00  0.00    +0.087 A 
ATOM    106  N   UNL     1       9.914  -5.153   1.534  0.00  0.00    -0.360 N 
ATOM    107  C   UNL     1      10.667  -5.955   0.858  0.00  0.00    +0.047 A 
ATOM    108  C   UNL     1      10.905  -6.012  -0.479  0.00  0.00    +0.026 A 
ATOM    109  C   UNL     1      11.806  -6.922  -0.880  0.00  0.00    +0.002 A 
ATOM    110  C   UNL     1      12.595  -7.391   0.154  0.00  0.00    +0.001 A 
ATOM    111  C   UNL     1      12.220  -7.232   1.626  0.00  0.00    +0.010 A 
ATOM    112  C   UNL     1      10.900  -6.659   1.995  0.00  0.00    +0.003 A 
ATOM    113  H   UNL     1       8.969  -5.499   1.367  0.00  0.00    +0.165 HD
ENDBRANCH 103 104
ENDBRANCH  66 103
ENDBRANCH  64  66
ENDBRANCH  61  62
ENDBRANCH   3  61
TORSDOF 42
