REMARK  Name = 
REMARK  8 active torsions:
REMARK  status: ('A' for Active; 'I' for Inactive)
REMARK    1  A    between atoms: C_1  and  C_2
REMARK    2  A    between atoms: C_3  and  C_4
REMARK    3  A    between atoms: C_4  and  C_5
REMARK    4  A    between atoms: C_6  and  C_7
REMARK    5  A    between atoms: C_7  and  C_8
REMARK    6  A    between atoms: C_8  and  C_9
REMARK    7  A    between atoms: C_9  and  C_11
REMARK    8  A    between atoms: C_13  and  C_14
REMARK                            x       y       z     vdW  Elec       q    Type
REMARK                         _______ _______ _______ _____ _____    ______ ____
ROOT
ATOM      1  C   UNL     1       2.086  -1.905  -0.423  0.00  0.00    +0.165 C 
ATOM      2  O   UNL     1       2.821  -1.750   0.540  0.00  0.00    -0.295 OA
ENDROOT
BRANCH   1   3
ATOM      3  C   UNL     1       2.660  -1.829  -1.812  0.00  0.00    +0.223 C 
ATOM      4  O   UNL     1       1.949  -0.910  -2.609  0.00  0.00    -0.351 OA
ATOM      5  C   UNL     1       3.272  -0.553  -2.280  0.00  0.00    +0.240 C 
BRANCH   5   6
ATOM      6  C   UNL     1       3.306   0.617  -1.345  0.00  0.00    +0.242 C 
ATOM      7  N   UNL     1       4.387   0.743  -0.424  0.00  0.00    -0.327 N 
ATOM      8  O   UNL     1       2.420   1.511  -1.410  0.00  0.00    -0.273 OA
ATOM      9  H   UNL     1       4.464   1.567   0.212  0.00  0.00    +0.145 HD
ATOM     10  H   UNL     1       4.464   1.569   0.213  0.00  0.00    +0.145 HD
ENDBRANCH   5   6
ENDBRANCH   1   3
BRANCH   1  11
ATOM     11  C   UNL     1       0.650  -2.310  -0.208  0.00  0.00    +0.081 C 
BRANCH  11  12
ATOM     12  C   UNL     1      -0.144  -1.262   0.584  0.00  0.00    +0.034 C 
BRANCH  12  14
ATOM     13  C   UNL     1      -1.145   1.012   0.239  0.00  0.00    -0.027 C 
ATOM     14  C   UNL     1      -0.432  -0.025  -0.232  0.00  0.00    -0.030 C 
BRANCH  13  15
ATOM     15  C   UNL     1      -1.708   1.057   1.638  0.00  0.00    +0.053 C 
BRANCH  15  18
ATOM     16  C   UNL     1      -4.501   1.370   0.547  0.00  0.00    +0.035 C 
ATOM     17  C   UNL     1      -3.803   2.426   1.356  0.00  0.00    -0.034 C 
ATOM     18  C   UNL     1      -2.558   2.286   1.845  0.00  0.00    -0.027 C 
ENDBRANCH  15  18
ENDBRANCH  13  15
ENDBRANCH  12  14
ENDBRANCH  11  12
ENDBRANCH   1  11
TORSDOF 7
