REMARK  Name = 
REMARK  9 active torsions:
REMARK  status: ('A' for Active; 'I' for Inactive)
REMARK    1  A    between atoms: O_1  and  C_2
REMARK    2  A    between atoms: C_2  and  C_4
REMARK    3  A    between atoms: C_4  and  O_5
REMARK    4  A    between atoms: O_5  and  C_6
REMARK    5  A    between atoms: C_6  and  C_7
REMARK    6  A    between atoms: C_7  and  N_8
REMARK    7  A    between atoms: N_11  and  C_14
REMARK    8  A    between atoms: C_14  and  C_15
REMARK    9  A    between atoms: C_14  and  C_21
REMARK                            x       y       z     vdW  Elec       q    Type
REMARK                         _______ _______ _______ _____ _____    ______ ____
ROOT
ATOM      1  N   UNL     1       1.838  -0.929   0.607  0.00  0.00    -0.298 NA
ATOM      2  C   UNL     1       1.313   0.453   0.467  0.00  0.00    +0.100 C 
ATOM      3  C   UNL     1      -0.226   0.502   0.513  0.00  0.00    +0.100 C 
ATOM      4  N   UNL     1      -0.776  -0.816   0.147  0.00  0.00    -0.289 NA
ATOM      5  C   UNL     1      -0.406  -1.837   1.150  0.00  0.00    +0.100 C 
ATOM      6  C   UNL     1       1.058  -1.682   1.608  0.00  0.00    +0.100 C 
ENDROOT
BRANCH   1   7
ATOM      7  C   UNL     1       3.271  -0.925   0.978  0.00  0.00    +0.112 C 
BRANCH   7   8
ATOM      8  C   UNL     1       4.152  -0.479  -0.192  0.00  0.00    +0.176 C 
BRANCH   8   9
ATOM      9  O   UNL     1       5.509  -0.636   0.171  0.00  0.00    -0.367 OA
BRANCH   9  10
ATOM     10  C   UNL     1       6.353  -0.121  -0.842  0.00  0.00    +0.280 C 
BRANCH  10  11
ATOM     11  C   UNL     1       6.567   1.350  -0.661  0.00  0.00    +0.331 C 
ATOM     12  O   UNL     1       6.747   1.827   0.491  0.00  0.00    -0.248 OA
BRANCH  11  13
ATOM     13  O   UNL     1       6.607   2.186  -1.774  0.00  0.00    -0.479 OA
ATOM     14  H   UNL     1       6.761   3.181  -1.670  0.00  0.00    +0.295 HD
ENDBRANCH  11  13
ENDBRANCH  10  11
ENDBRANCH   9  10
ENDBRANCH   8   9
ENDBRANCH   7   8
ENDBRANCH   1   7
BRANCH   4  15
ATOM     15  C   UNL     1      -2.231  -0.822  -0.172  0.00  0.00    +0.117 C 
BRANCH  15  16
ATOM     16  C   UNL     1      -2.514  -0.244  -1.558  0.00  0.00    -0.026 A 
ATOM     17  C   UNL     1      -3.841   0.032  -1.949  0.00  0.00    +0.007 A 
ATOM     18  C   UNL     1      -4.122   0.522  -3.227  0.00  0.00    +0.020 A 
ATOM     19  C   UNL     1      -3.092   0.708  -4.150  0.00  0.00    +0.041 A 
ATOM     20 CL   UNL     1      -3.449   1.319  -5.755  0.00  0.00    -0.084 Cl
ATOM     21  C   UNL     1      -1.779   0.388  -3.798  0.00  0.00    +0.020 A 
ATOM     22  C   UNL     1      -1.491  -0.097  -2.519  0.00  0.00    +0.007 A 
ENDBRANCH  15  16
BRANCH  15  23
ATOM     23  C   UNL     1      -3.078  -0.180   0.930  0.00  0.00    -0.026 A 
ATOM     24  C   UNL     1      -3.269   1.216   0.996  0.00  0.00    +0.005 A 
ATOM     25  C   UNL     1      -4.040   1.780   2.017  0.00  0.00    +0.000 A 
ATOM     26  C   UNL     1      -4.628   0.962   2.984  0.00  0.00    +0.000 A 
ATOM     27  C   UNL     1      -4.450  -0.422   2.929  0.00  0.00    +0.000 A 
ATOM     28  C   UNL     1      -3.682  -0.991   1.909  0.00  0.00    +0.005 A 
ENDBRANCH  15  23
ENDBRANCH   4  15
TORSDOF 9
