REMARK  Name = 
REMARK  44 active torsions:
REMARK  status: ('A' for Active; 'I' for Inactive)
REMARK    1  A    between atoms: C_1  and  C_2
REMARK    2  A    between atoms: C_2  and  C_3
REMARK    3  A    between atoms: C_2  and  C_4
REMARK    4  A    between atoms: C_4  and  C_5
REMARK    5  A    between atoms: C_5  and  N_6
REMARK    6  A    between atoms: C_5  and  C_77
REMARK    7  A    between atoms: C_7  and  C_9
REMARK    8  A    between atoms: C_9  and  C_10
REMARK    9  A    between atoms: C_9  and  N_17
REMARK   10  A    between atoms: C_10  and  C_11
REMARK   11  A    between atoms: C_11  and  C_12
REMARK   12  A    between atoms: C_12  and  N_13
REMARK   13  A    between atoms: C_18  and  C_20
REMARK   14  A    between atoms: C_20  and  C_21
REMARK   15  A    between atoms: C_20  and  N_29
REMARK   16  A    between atoms: C_21  and  C_22
REMARK   17  A    between atoms: C_25  and  O_26
REMARK   18  A    between atoms: C_30  and  CA_32
REMARK   19  A    between atoms: CA_32  and  C_33
REMARK   20  A    between atoms: CA_32  and  N_35
REMARK   21  A    between atoms: C_33  and  O_34
REMARK   22  A    between atoms: C_36  and  CA_38
REMARK   23  A    between atoms: CA_38  and  C_39
REMARK   24  A    between atoms: CA_38  and  N_46
REMARK   25  A    between atoms: C_39  and  C_40
REMARK   26  A    between atoms: C_47  and  CA_49
REMARK   27  A    between atoms: CA_49  and  C_50
REMARK   28  A    between atoms: CA_49  and  N_58
REMARK   29  A    between atoms: C_50  and  C_51
REMARK   30  A    between atoms: C_59  and  CA_61
REMARK   31  A    between atoms: CA_61  and  C_62
REMARK   32  A    between atoms: CA_61  and  N_73
REMARK   33  A    between atoms: C_62  and  C_63
REMARK   34  A    between atoms: C_74  and  C_75
REMARK   35  A    between atoms: N_79  and  C_80
REMARK   36  A    between atoms: C_80  and  C_81
REMARK   37  A    between atoms: C_80  and  C_88
REMARK   38  A    between atoms: C_81  and  C_82
REMARK   39  A    between atoms: C_82  and  C_83
REMARK   40  A    between atoms: C_83  and  N_84
REMARK   41  A    between atoms: C_94  and  C_95
REMARK   42  A    between atoms: N_97  and  C_98
REMARK   43  A    between atoms: C_98  and  C_99
REMARK   44  A    between atoms: C_98  and  C_100
REMARK                            x       y       z     vdW  Elec       q    Type
REMARK                         _______ _______ _______ _____ _____    ______ ____
ROOT
ATOM      1  C   UNL     1     -11.718 -20.040  -1.656  0.00  0.00    +0.163 C 
ENDROOT
BRANCH   1   3
ATOM      2  N   UNL     1     -10.497 -20.888  -3.426  0.00  0.00    -0.302 N 
ATOM      3  C   UNL     1     -11.647 -20.502  -2.966  0.00  0.00    +0.234 C 
ATOM      4  O   UNL     1     -12.731 -20.769  -3.455  0.00  0.00    -0.274 OA
ATOM      5  H   UNL     1     -10.640 -21.051  -4.379  0.00  0.00    +0.150 HD
BRANCH   2   6
ATOM      6  C   UNL     1      -9.430 -21.481  -2.725  0.00  0.00    +0.159 C 
BRANCH   6   8
ATOM      7  N   UNL     1      -8.742 -23.719  -4.215  0.00  0.00    -0.302 N 
ATOM      8  C   UNL     1      -9.280 -23.099  -3.057  0.00  0.00    +0.234 C 
ATOM      9  O   UNL     1      -9.762 -23.858  -2.201  0.00  0.00    -0.274 OA
ATOM     10  H   UNL     1      -8.771 -24.730  -4.164  0.00  0.00    +0.150 HD
BRANCH   7  11
ATOM     11  C   UNL     1      -8.034 -23.240  -5.564  0.00  0.00    +0.159 C 
BRANCH  11  12
ATOM     12  C   UNL     1      -6.562 -23.342  -5.779  0.00  0.00    +0.234 C 
ATOM     13  O   UNL     1      -6.146 -23.218  -6.934  0.00  0.00    -0.274 OA
ATOM     14  N   UNL     1      -5.657 -23.244  -4.767  0.00  0.00    -0.302 N 
ATOM     15  H   UNL     1      -4.773 -23.023  -5.187  0.00  0.00    +0.150 HD
BRANCH  14  16
ATOM     16  C   UNL     1      -5.764 -22.796  -3.399  0.00  0.00    +0.159 C 
BRANCH  16  17
ATOM     17  C   UNL     1      -5.003 -21.485  -3.173  0.00  0.00    +0.237 C 
ATOM     18  O   UNL     1      -5.838 -20.678  -2.832  0.00  0.00    -0.274 OA
ATOM     19  N   UNL     1      -3.685 -21.083  -3.124  0.00  0.00    -0.288 N 
ATOM     20  C   UNL     1      -2.739 -21.594  -4.063  0.00  0.00    +0.109 C 
ATOM     21  C   UNL     1      -1.556 -21.927  -3.239  0.00  0.00    +0.021 C 
ATOM     22  C   UNL     1      -1.466 -20.780  -2.205  0.00  0.00    +0.033 C 
ATOM     23  C   UNL     1      -2.861 -20.190  -2.024  0.00  0.00    +0.162 C 
BRANCH  23  24
ATOM     24  C   UNL     1      -2.914 -18.580  -1.839  0.00  0.00    +0.234 C 
ATOM     25  O   UNL     1      -1.963 -17.897  -1.475  0.00  0.00    -0.274 OA
ATOM     26  N   UNL     1      -4.153 -17.970  -1.859  0.00  0.00    -0.303 N 
ATOM     27  H   UNL     1      -4.269 -16.976  -1.987  0.00  0.00    +0.149 HD
BRANCH  26  28
ATOM     28  C   UNL     1      -5.187 -18.788  -2.263  0.00  0.00    +0.156 C 
ATOM     29  C   UNL     1      -5.433 -19.897  -0.911  0.00  0.00    +0.038 C 
BRANCH  28  30
ATOM     30  C   UNL     1      -4.427 -18.897  -3.934  0.00  0.00    +0.231 C 
ATOM     31  N   UNL     1      -5.117 -18.598  -4.958  0.00  0.00    -0.328 N 
ATOM     32  O   UNL     1      -3.477 -19.342  -4.547  0.00  0.00    -0.274 OA
ATOM     33  H   UNL     1      -4.948 -19.187  -5.779  0.00  0.00    +0.145 HD
ATOM     34  H   UNL     1      -5.835 -19.050  -4.491  0.00  0.00    +0.145 HD
ENDBRANCH  28  30
ENDBRANCH  26  28
ENDBRANCH  23  24
ENDBRANCH  16  17
BRANCH  16  35
ATOM     35  C   UNL     1      -5.684 -23.773  -2.252  0.00  0.00    +0.033 C 
BRANCH  35  36
ATOM     36  C   UNL     1      -4.251 -24.156  -2.073  0.00  0.00    +0.023 C 
BRANCH  36  37
ATOM     37  C   UNL     1      -3.532 -23.153  -1.245  0.00  0.00    +0.115 C 
BRANCH  37  38
ATOM     38  N   UNL     1      -3.972 -22.695   0.048  0.00  0.00    -0.356 N 
ATOM     39  C   UNL     1      -2.970 -22.168   0.801  0.00  0.00    +0.188 C 
ATOM     40  N   UNL     1      -3.366 -21.391   1.811  0.00  0.00    -0.370 N 
ATOM     41  N   UNL     1      -1.734 -22.401   0.545  0.00  0.00    -0.269 NA
ATOM     42  H   UNL     1      -4.828 -22.147   0.044  0.00  0.00    +0.162 HD
ATOM     43  H   UNL     1      -2.720 -21.386   2.591  0.00  0.00    +0.159 HD
ATOM     44  H   UNL     1      -4.339 -21.402   2.079  0.00  0.00    +0.159 HD
ATOM     45  H   UNL     1      -1.090 -21.921   1.165  0.00  0.00    +0.190 HD
ENDBRANCH  37  38
ENDBRANCH  36  37
ENDBRANCH  35  36
ENDBRANCH  16  35
ENDBRANCH  14  16
ENDBRANCH  11  12
BRANCH  11  46
ATOM     46  C   UNL     1      -8.095 -21.785  -5.572  0.00  0.00    +0.034 C 
BRANCH  46  48
ATOM     47  C   UNL     1      -7.767 -20.348  -7.942  0.00  0.00    +0.007 C 
ATOM     48  C   UNL     1      -7.170 -20.227  -6.355  0.00  0.00    -0.015 C 
ATOM     49  C   UNL     1      -7.147 -18.425  -5.442  0.00  0.00    +0.007 C 
ENDBRANCH  46  48
ENDBRANCH  11  46
ENDBRANCH   7  11
ENDBRANCH   6   8
BRANCH   6  50
ATOM     50  C   UNL     1      -8.329 -20.481  -2.692  0.00  0.00    +0.033 C 
BRANCH  50  51
ATOM     51  C   UNL     1      -7.816 -20.142  -4.018  0.00  0.00    +0.021 C 
BRANCH  51  52
ATOM     52  C   UNL     1      -9.023 -19.690  -5.276  0.00  0.00    +0.106 C 
BRANCH  52  53
ATOM     53  N   UNL     1      -9.353 -18.355  -5.579  0.00  0.00    -0.300 N 
ATOM     54  C   UNL     1      -8.730 -17.562  -6.717  0.00  0.00    +0.297 C 
ATOM     55  N   UNL     1      -8.670 -16.227  -6.428  0.00  0.00    -0.313 N 
ATOM     56  O   UNL     1      -8.022 -17.896  -7.662  0.00  0.00    -0.253 OA
ATOM     57  H   UNL     1      -9.532 -18.043  -4.643  0.00  0.00    +0.150 HD
ATOM     58  H   UNL     1      -7.877 -15.825  -6.924  0.00  0.00    +0.146 HD
ATOM     59  H   UNL     1      -8.736 -15.976  -5.459  0.00  0.00    +0.146 HD
ENDBRANCH  52  53
ENDBRANCH  51  52
ENDBRANCH  50  51
ENDBRANCH   6  50
ENDBRANCH   2   6
ENDBRANCH   1   3
BRANCH   1  60
ATOM     60  N   UNL     1     -11.979 -21.439  -1.126  0.00  0.00    -0.302 N 
ATOM     61  C   UNL     1     -13.039 -22.320  -1.039  0.00  0.00    +0.236 C 
ATOM     62  O   UNL     1     -12.731 -23.445  -0.633  0.00  0.00    -0.274 OA
ATOM     63  H   UNL     1     -11.210 -22.092  -1.221  0.00  0.00    +0.150 HD
BRANCH  61  64
ATOM     64  CA  UNL     1     -14.528 -22.057  -1.193  0.00  0.00    +0.184 C 
BRANCH  64  65
ATOM     65  N   UNL     1     -15.045 -21.994  -2.442  0.00  0.00    -0.301 N 
ATOM     66  C   UNL     1     -15.519 -20.805  -2.873  0.00  0.00    +0.234 C 
ATOM     67  O   UNL     1     -15.889 -20.813  -3.903  0.00  0.00    -0.274 OA
ATOM     68  H   UNL     1     -15.499 -22.834  -2.753  0.00  0.00    +0.150 HD
BRANCH  66  69
ATOM     69  CA  UNL     1     -15.552 -19.361  -2.680  0.00  0.00    +0.163 C 
BRANCH  69  70
ATOM     70  N   UNL     1     -14.277 -18.997  -2.771  0.00  0.00    -0.302 N 
ATOM     71  C   UNL     1     -14.062 -17.968  -3.528  0.00  0.00    +0.234 C 
ATOM     72  O   UNL     1     -13.076 -17.474  -2.933  0.00  0.00    -0.274 OA
ATOM     73  H   UNL     1     -13.705 -19.775  -3.048  0.00  0.00    +0.150 HD
BRANCH  71  74
ATOM     74  CA  UNL     1     -14.786 -17.950  -5.310  0.00  0.00    +0.163 C 
BRANCH  74  75
ATOM     75  N   UNL     1     -15.622 -16.816  -5.243  0.00  0.00    -0.302 N 
ATOM     76  C   UNL     1     -15.243 -15.527  -5.519  0.00  0.00    +0.234 C 
ATOM     77  O   UNL     1     -15.894 -14.695  -4.878  0.00  0.00    -0.274 OA
ATOM     78  H   UNL     1     -16.146 -16.844  -4.385  0.00  0.00    +0.150 HD
BRANCH  76  79
ATOM     79  CA  UNL     1     -14.026 -15.086  -6.474  0.00  0.00    +0.163 C 
BRANCH  79  80
ATOM     80  N   UNL     1     -14.095 -15.786  -7.764  0.00  0.00    -0.304 N 
ATOM     81  C   UNL     1     -14.365 -15.110  -8.921  0.00  0.00    +0.211 C 
ATOM     82  C   UNL     1     -14.430 -15.957 -10.163  0.00  0.00    +0.109 C 
ATOM     83  O   UNL     1     -14.535 -13.897  -8.956  0.00  0.00    -0.276 OA
ATOM     84  H   UNL     1     -13.954 -16.786  -7.812  0.00  0.00    +0.149 HD
ENDBRANCH  79  80
BRANCH  79  85
ATOM     85  C   UNL     1     -12.527 -15.022  -5.935  0.00  0.00    +0.067 C 
BRANCH  85  86
ATOM     86  C   UNL     1     -11.886 -16.376  -5.826  0.00  0.00    -0.045 A 
ATOM     87  C   UNL     1     -11.384 -17.262  -6.702  0.00  0.00    +0.012 A 
ATOM     88  C   UNL     1     -11.515 -18.915  -6.748  0.00  0.00    -0.018 A 
ATOM     89  C   UNL     1     -10.866 -19.828  -7.509  0.00  0.00    +0.008 A 
ATOM     90  C   UNL     1     -10.707 -21.338  -7.277  0.00  0.00    +0.001 A 
ATOM     91  C   UNL     1     -11.324 -22.080  -6.310  0.00  0.00    +0.001 A 
ATOM     92  C   UNL     1     -12.242 -21.307  -5.741  0.00  0.00    +0.008 A 
ATOM     93  C   UNL     1     -12.114 -19.751  -5.895  0.00  0.00    -0.018 A 
ATOM     94  C   UNL     1     -12.558 -18.808  -5.089  0.00  0.00    +0.009 A 
ATOM     95  C   UNL     1     -12.428 -17.204  -4.997  0.00  0.00    +0.004 A 
ENDBRANCH  85  86
ENDBRANCH  79  85
ENDBRANCH  76  79
ENDBRANCH  74  75
BRANCH  74  96
ATOM     96  C   UNL     1     -15.126 -19.200  -6.399  0.00  0.00    +0.067 C 
BRANCH  96  97
ATOM     97  C   UNL     1     -16.213 -20.235  -6.043  0.00  0.00    -0.045 A 
ATOM     98  C   UNL     1     -17.381 -19.577  -5.383  0.00  0.00    +0.005 A 
ATOM     99  C   UNL     1     -18.197 -20.268  -4.396  0.00  0.00    +0.020 A 
ATOM    100  C   UNL     1     -17.964 -21.715  -4.139  0.00  0.00    +0.041 A 
ATOM    101 CL   UNL     1     -18.502 -22.252  -2.496  0.00  0.00    -0.084 Cl
ATOM    102  C   UNL     1     -16.844 -22.507  -4.867  0.00  0.00    +0.020 A 
ATOM    103  C   UNL     1     -15.910 -21.737  -5.821  0.00  0.00    +0.005 A 
ENDBRANCH  96  97
ENDBRANCH  74  96
ENDBRANCH  71  74
ENDBRANCH  69  70
BRANCH  69 104
ATOM    104  C   UNL     1     -16.214 -18.637  -1.627  0.00  0.00    +0.068 C 
BRANCH 104 105
ATOM    105  C   UNL     1     -15.519 -18.870  -0.317  0.00  0.00    -0.027 A 
ATOM    106  C   UNL     1     -16.224 -18.869   0.815  0.00  0.00    +0.114 A 
ATOM    107  N   UNL     1     -15.801 -19.556   1.942  0.00  0.00    -0.263 NA
ATOM    108  C   UNL     1     -14.624 -20.252   1.988  0.00  0.00    +0.111 A 
ATOM    109  C   UNL     1     -13.822 -20.287   0.931  0.00  0.00    +0.020 A 
ATOM    110  C   UNL     1     -14.291 -19.497  -0.114  0.00  0.00    +0.006 A 
ENDBRANCH 104 105
ENDBRANCH  69 104
ENDBRANCH  66  69
ENDBRANCH  64  65
BRANCH  64 111
ATOM    111  C   UNL     1     -15.471 -22.470  -0.084  0.00  0.00    +0.187 C 
BRANCH 111 112
ATOM    112  O   UNL     1     -16.513 -21.513   0.111  0.00  0.00    -0.393 OA
ATOM    113  H   UNL     1     -16.133 -20.866   0.726  0.00  0.00    +0.209 HD
ENDBRANCH 111 112
ENDBRANCH  64 111
ENDBRANCH  61  64
ENDBRANCH   1  60
BRANCH   1 114
ATOM    114  C   UNL     1     -10.863 -18.851  -1.321  0.00  0.00    +0.067 C 
BRANCH 114 115
ATOM    115  C   UNL     1     -11.309 -18.513   0.046  0.00  0.00    -0.045 A 
ATOM    116  C   UNL     1     -10.836 -19.429   0.986  0.00  0.00    +0.007 A 
ATOM    117  C   UNL     1     -11.356 -19.420   2.258  0.00  0.00    +0.045 A 
ATOM    118  C   UNL     1     -12.362 -18.495   2.572  0.00  0.00    +0.117 A 
ATOM    119  C   UNL     1     -12.918 -17.637   1.607  0.00  0.00    +0.045 A 
ATOM    120  C   UNL     1     -12.387 -17.640   0.318  0.00  0.00    +0.007 A 
BRANCH 118 121
ATOM    121  O   UNL     1     -13.010 -18.574   3.772  0.00  0.00    -0.507 OA
ATOM    122  H   UNL     1     -12.569 -19.237   4.322  0.00  0.00    +0.292 HD
ENDBRANCH 118 121
ENDBRANCH 114 115
ENDBRANCH   1 114
TORSDOF 40
