REMARK  Name = 
REMARK  1 active torsions:
REMARK  status: ('A' for Active; 'I' for Inactive)
REMARK    1  A    between atoms: C_1  and  C_2
REMARK                            x       y       z     vdW  Elec       q    Type
REMARK                         _______ _______ _______ _____ _____    ______ ____
ROOT
ATOM      1  C   UNL     1       3.547   0.476  -0.735  0.00  0.00    +0.050 C 
ATOM      2  C   UNL     1       2.585  -0.647  -0.370  0.00  0.00    +0.173 C 
ATOM      3  O   UNL     1       1.295  -0.347  -0.867  0.00  0.00    -0.358 OA
ATOM      4  C   UNL     1       0.333  -0.385   0.170  0.00  0.00    +0.095 C 
ATOM      5  C   UNL     1       0.858  -1.284   1.293  0.00  0.00    +0.108 C 
ATOM      6  S   UNL     1       2.596  -0.908   1.430  0.00  0.00    -0.127 S 
ATOM      7  C   UNL     1       0.065   1.076   0.676  0.00  0.00    +0.120 C 
ATOM      8  N   UNL     1      -1.343   1.483   0.447  0.00  0.00    -0.300 NA
ATOM      9  C   UNL     1      -2.246   0.564   1.182  0.00  0.00    +0.085 C 
ATOM     10  C   UNL     1      -2.100  -0.892   0.675  0.00  0.00    +0.022 C 
ATOM     11  C   UNL     1      -1.002  -0.942  -0.410  0.00  0.00    +0.025 C 
ATOM     12  C   UNL     1      -1.463  -0.015  -1.556  0.00  0.00    +0.022 C 
ATOM     13  C   UNL     1      -1.644   1.421  -1.004  0.00  0.00    +0.085 C 
ENDROOT
TORSDOF 0
