REMARK  Name = 
REMARK  10 active torsions:
REMARK  status: ('A' for Active; 'I' for Inactive)
REMARK    1  A    between atoms: C_1  and  C_22
REMARK    2  A    between atoms: C_6  and  O_7
REMARK    3  A    between atoms: C_11  and  O_12
REMARK    4  A    between atoms: C_15  and  C_16
REMARK    5  A    between atoms: C_20  and  C_21
REMARK    6  A    between atoms: C_22  and  C_23
REMARK    7  A    between atoms: C_22  and  C_24
REMARK    8  A    between atoms: C_24  and  C_25
REMARK    9  A    between atoms: C_25  and  C_26
REMARK   10  A    between atoms: C_26  and  O_27
REMARK                            x       y       z     vdW  Elec       q    Type
REMARK                         _______ _______ _______ _____ _____    ______ ____
ROOT
ATOM      1  C   UNL     1      -2.844  -0.054   1.052  0.00  0.00    -0.002 C 
ATOM      2  C   UNL     1      -2.678  -1.254   2.017  0.00  0.00    +0.004 C 
ATOM      3  C   UNL     1      -1.162  -1.513   2.119  0.00  0.00    +0.005 C 
ATOM      4  C   UNL     1      -0.516  -0.352   1.362  0.00  0.00    +0.001 C 
ATOM      5  C   UNL     1       0.938  -0.510   0.854  0.00  0.00    +0.025 C 
ATOM      6  C   UNL     1       1.938  -0.869   2.002  0.00  0.00    +0.118 C 
ATOM      7  C   UNL     1       3.324  -0.232   1.819  0.00  0.00    +0.035 C 
ATOM      8  C   UNL     1       3.791  -0.210   0.352  0.00  0.00    +0.000 C 
ATOM      9  C   UNL     1       5.251   0.323   0.332  0.00  0.00    +0.035 C 
ATOM     10  C   UNL     1       5.703   0.775  -1.060  0.00  0.00    +0.115 C 
ATOM     11  C   UNL     1       4.797   1.897  -1.611  0.00  0.00    +0.032 C 
ATOM     12  C   UNL     1       3.408   1.974  -0.943  0.00  0.00    +0.010 C 
ATOM     13  C   UNL     1       2.798   0.582  -0.603  0.00  0.00    -0.026 C 
ATOM     14  C   UNL     1       2.629  -0.223  -1.930  0.00  0.00    +0.012 C 
ATOM     15  C   UNL     1       1.385   0.791   0.096  0.00  0.00    +0.001 C 
ATOM     16  C   UNL     1       0.293   1.391  -0.862  0.00  0.00    +0.005 C 
ATOM     17  C   UNL     1      -1.142   1.380  -0.294  0.00  0.00    +0.007 C 
ATOM     18  C   UNL     1      -1.518  -0.015   0.248  0.00  0.00    -0.026 C 
ATOM     19  C   UNL     1      -1.530  -1.064  -0.907  0.00  0.00    +0.012 C 
ENDROOT
BRANCH   6  20
ATOM     20  O   UNL     1       1.449  -0.465   3.259  0.00  0.00    -0.391 OA
ATOM     21  H   UNL     1       1.727  -1.155   3.919  0.00  0.00    +0.210 HD
ENDBRANCH   6  20
BRANCH  10  22
ATOM     22  O   UNL     1       7.027   1.240  -1.002  0.00  0.00    -0.392 OA
ATOM     23  H   UNL     1       7.611   0.441  -0.909  0.00  0.00    +0.210 HD
ENDBRANCH  10  22
BRANCH   1  24
ATOM     24  C   UNL     1      -4.190   0.033   0.246  0.00  0.00    -0.010 C 
ATOM     25  C   UNL     1      -5.242   0.790   1.081  0.00  0.00    +0.008 C 
BRANCH  24  26
ATOM     26  C   UNL     1      -4.774  -1.333  -0.223  0.00  0.00    +0.014 C 
BRANCH  26  27
ATOM     27  C   UNL     1      -5.723  -1.217  -1.429  0.00  0.00    +0.121 C 
BRANCH  27  28
ATOM     28  C   UNL     1      -4.985  -0.890  -2.691  0.00  0.00    +0.305 C 
ATOM     29  O   UNL     1      -4.436  -1.809  -3.355  0.00  0.00    -0.251 OA
BRANCH  28  30
ATOM     30  O   UNL     1      -4.877   0.430  -3.115  0.00  0.00    -0.481 OA
ATOM     31  H   UNL     1      -4.356   0.663  -3.951  0.00  0.00    +0.295 HD
ENDBRANCH  28  30
ENDBRANCH  27  28
ENDBRANCH  26  27
ENDBRANCH  24  26
ENDBRANCH   1  24
TORSDOF 7
