REMARK  Name = 
REMARK  6 active torsions:
REMARK  status: ('A' for Active; 'I' for Inactive)
REMARK    1  A    between atoms: C_1  and  N_2
REMARK    2  A    between atoms: N_2  and  C_3
REMARK    3  A    between atoms: N_2  and  C_4
REMARK    4  A    between atoms: C_4  and  C_5
REMARK    5  A    between atoms: C_5  and  C_6
REMARK    6  A    between atoms: C_6  and  N_7
REMARK                            x       y       z     vdW  Elec       q    Type
REMARK                         _______ _______ _______ _____ _____    ______ ____
ROOT
ATOM      1  N   UNL     1      -0.616   0.241   0.887  0.00  0.00    -0.298 N 
ATOM      2  C   UNL     1      -1.345   1.450   0.584  0.00  0.00    +0.048 A 
ATOM      3  C   UNL     1      -1.599   2.413   1.577  0.00  0.00    +0.024 A 
ATOM      4  C   UNL     1      -2.442   3.495   1.309  0.00  0.00    +0.002 A 
ATOM      5  C   UNL     1      -3.056   3.615   0.059  0.00  0.00    +0.001 A 
ATOM      6  C   UNL     1      -2.817   2.660  -0.933  0.00  0.00    +0.017 A 
ATOM      7  C   UNL     1      -1.954   1.589  -0.678  0.00  0.00    +0.034 A 
ATOM      8  S   UNL     1      -1.558   0.419  -1.981  0.00  0.00    -0.086 S 
ATOM      9  C   UNL     1      -1.744  -1.009  -0.908  0.00  0.00    +0.034 A 
ATOM     10  C   UNL     1      -1.148  -0.999   0.367  0.00  0.00    +0.049 A 
ATOM     11  C   UNL     1      -1.207  -2.157   1.161  0.00  0.00    +0.044 A 
ATOM     12  C   UNL     1      -1.858  -3.303   0.689  0.00  0.00    +0.043 A 
ATOM     13 CL   UNL     1      -1.932  -4.743   1.688  0.00  0.00    -0.083 Cl
ATOM     14  C   UNL     1      -2.470  -3.293  -0.569  0.00  0.00    +0.021 A 
ATOM     15  C   UNL     1      -2.417  -2.147  -1.365  0.00  0.00    +0.018 A 
ENDROOT
BRANCH   1  16
ATOM     16  C   UNL     1       0.581   0.272   1.745  0.00  0.00    +0.112 C 
BRANCH  16  17
ATOM     17  C   UNL     1       1.777  -0.421   1.074  0.00  0.00    +0.035 C 
BRANCH  17  18
ATOM     18  C   UNL     1       2.188   0.280  -0.229  0.00  0.00    +0.085 C 
BRANCH  18  20
ATOM     19  C   UNL     1       2.923  -1.528  -1.682  0.00  0.00    +0.104 C 
ATOM     20  N   UNL     1       3.353  -0.399  -0.837  0.00  0.00    -0.308 NA
ATOM     21  C   UNL     1       4.129   0.550  -1.652  0.00  0.00    +0.104 C 
ENDBRANCH  18  20
ENDBRANCH  17  18
ENDBRANCH  16  17
ENDBRANCH   1  16
TORSDOF 4
