REMARK  Name = 
REMARK  10 active torsions:
REMARK  status: ('A' for Active; 'I' for Inactive)
REMARK    1  A    between atoms: O_1  and  C_2
REMARK    2  A    between atoms: C_2  and  C_4
REMARK    3  A    between atoms: C_4  and  C_5
REMARK    4  A    between atoms: C_5  and  C_6
REMARK    5  A    between atoms: C_6  and  C_7
REMARK    6  A    between atoms: C_10  and  N_13
REMARK    7  A    between atoms: N_13  and  C_14
REMARK    8  A    between atoms: N_13  and  C_17
REMARK    9  A    between atoms: C_14  and  C_15
REMARK   10  A    between atoms: C_17  and  C_18
REMARK                            x       y       z     vdW  Elec       q    Type
REMARK                         _______ _______ _______ _____ _____    ______ ____
ROOT
ATOM      1  C   UNL     1       1.195   0.093   1.280  0.00  0.00    -0.047 A 
ATOM      2  C   UNL     1       0.558   1.122   0.569  0.00  0.00    +0.005 A 
ATOM      3  C   UNL     1      -0.680   0.898  -0.040  0.00  0.00    +0.023 A 
ATOM      4  C   UNL     1      -1.298  -0.360   0.049  0.00  0.00    +0.030 A 
ATOM      5  C   UNL     1      -0.659  -1.388   0.760  0.00  0.00    +0.023 A 
ATOM      6  C   UNL     1       0.578  -1.164   1.369  0.00  0.00    +0.005 A 
ENDROOT
BRANCH   1   7
ATOM      7  C   UNL     1       2.542   0.324   1.917  0.00  0.00    +0.035 C 
BRANCH   7   8
ATOM      8  C   UNL     1       3.684  -0.300   1.097  0.00  0.00    +0.016 C 
BRANCH   8   9
ATOM      9  C   UNL     1       3.893   0.362  -0.274  0.00  0.00    +0.121 C 
BRANCH   9  10
ATOM     10  C   UNL     1       4.343   1.785  -0.144  0.00  0.00    +0.305 C 
ATOM     11  O   UNL     1       3.575   2.724  -0.483  0.00  0.00    -0.251 OA
BRANCH  10  12
ATOM     12  O   UNL     1       5.607   2.069   0.364  0.00  0.00    -0.481 OA
ATOM     13  H   UNL     1       5.924   3.026   0.462  0.00  0.00    +0.295 HD
ENDBRANCH  10  12
ENDBRANCH   9  10
ENDBRANCH   8   9
ENDBRANCH   7   8
ENDBRANCH   1   7
BRANCH   4  14
ATOM     14  N   UNL     1      -2.576  -0.593  -0.573  0.00  0.00    -0.328 N 
BRANCH  14  15
ATOM     15  C   UNL     1      -3.716   0.285  -0.271  0.00  0.00    +0.121 C 
BRANCH  15  16
ATOM     16  C   UNL     1      -4.147   0.116   1.184  0.00  0.00    +0.127 C 
ATOM     17 CL   UNL     1      -5.563   1.141   1.528  0.00  0.00    -0.124 Cl
ENDBRANCH  15  16
ENDBRANCH  14  15
BRANCH  14  18
ATOM     18  C   UNL     1      -2.729  -1.674  -1.556  0.00  0.00    +0.121 C 
BRANCH  18  19
ATOM     19  C   UNL     1      -2.647  -1.131  -2.983  0.00  0.00    +0.127 C 
ATOM     20 CL   UNL     1      -1.005  -0.540  -3.353  0.00  0.00    -0.124 Cl
ENDBRANCH  18  19
ENDBRANCH  14  18
ENDBRANCH   4  14
TORSDOF 10
