REMARK  Name = 
REMARK  8 active torsions:
REMARK  status: ('A' for Active; 'I' for Inactive)
REMARK    1  A    between atoms: O_1  and  C_2
REMARK    2  A    between atoms: C_2  and  CA_3
REMARK    3  A    between atoms: CA_3  and  N_4
REMARK    4  A    between atoms: CA_3  and  C_10
REMARK    5  A    between atoms: C_5  and  C_7
REMARK    6  A    between atoms: C_10  and  O_11
REMARK    7  A    between atoms: C_10  and  C_12
REMARK    8  A    between atoms: C_15  and  N_18
REMARK                            x       y       z     vdW  Elec       q    Type
REMARK                         _______ _______ _______ _____ _____    ______ ____
ROOT
ATOM      1  C   UNL     1      -0.320  -0.532  -1.700  0.00  0.00    +0.167 C 
ENDROOT
BRANCH   1   2
ATOM      2  C   UNL     1       0.904  -0.215  -0.859  0.00  0.00    -0.017 A 
ATOM      3  C   UNL     1       1.893  -1.182  -0.596  0.00  0.00    +0.008 A 
ATOM      4  C   UNL     1       2.993  -0.872   0.208  0.00  0.00    +0.033 A 
ATOM      5  C   UNL     1       3.129   0.407   0.772  0.00  0.00    +0.126 A 
ATOM      6  C   UNL     1       2.138   1.371   0.516  0.00  0.00    +0.033 A 
ATOM      7  C   UNL     1       1.038   1.061  -0.288  0.00  0.00    +0.008 A 
BRANCH   5   8
ATOM      8  N   UNL     1       4.263   0.721   1.601  0.00  0.00    +0.056 N 
ATOM      9  O   UNL     1       5.230  -0.225   1.851  0.00  0.00    -0.126 OA
ATOM     10  O   UNL     1       4.387   1.856   2.107  0.00  0.00    -0.126 OA
ENDBRANCH   5   8
ENDBRANCH   1   2
BRANCH   1  11
ATOM     11  O   UNL     1      -0.031  -1.468  -2.713  0.00  0.00    -0.385 OA
ATOM     12  H   UNL     1      -0.037  -2.376  -2.321  0.00  0.00    +0.210 HD
ENDBRANCH   1  11
BRANCH   1  13
ATOM     13  CA  UNL     1      -1.574  -0.931  -0.861  0.00  0.00    +0.131 C 
BRANCH  13  14
ATOM     14  N   UNL     1      -2.103   0.239  -0.147  0.00  0.00    -0.305 N 
ATOM     15  C   UNL     1      -2.849   1.272  -0.807  0.00  0.00    +0.246 C 
ATOM     16  O   UNL     1      -3.143   1.162  -2.029  0.00  0.00    -0.273 OA
ATOM     17  H   UNL     1      -1.915   0.344   0.876  0.00  0.00    +0.149 HD
BRANCH  15  18
ATOM     18  C   UNL     1      -3.248   2.509  -0.061  0.00  0.00    +0.256 C 
ATOM     19 CL   UNL     1      -2.269   3.886  -0.620  0.00  0.00    -0.094 Cl
ATOM     20 CL   UNL     1      -4.975   2.864  -0.320  0.00  0.00    -0.094 Cl
ENDBRANCH  15  18
ENDBRANCH  13  14
BRANCH  13  21
ATOM     21  C   UNL     1      -1.354  -2.103   0.123  0.00  0.00    +0.181 C 
BRANCH  21  22
ATOM     22  O   UNL     1      -0.500  -1.734   1.172  0.00  0.00    -0.393 OA
ATOM     23  H   UNL     1      -0.401  -2.538   1.745  0.00  0.00    +0.209 HD
ENDBRANCH  21  22
ENDBRANCH  13  21
ENDBRANCH   1  13
TORSDOF 8
