REMARK  Name = 
REMARK  8 active torsions:
REMARK  status: ('A' for Active; 'I' for Inactive)
REMARK    1  A    between atoms: C_1  and  N_2
REMARK    2  A    between atoms: N_2  and  C_3
REMARK    3  A    between atoms: N_2  and  C_4
REMARK    4  A    between atoms: C_4  and  C_5
REMARK    5  A    between atoms: C_5  and  N_6
REMARK    6  A    between atoms: N_6  and  C_7
REMARK    7  A    between atoms: N_6  and  C_15
REMARK    8  A    between atoms: C_7  and  C_8
REMARK                            x       y       z     vdW  Elec       q    Type
REMARK                         _______ _______ _______ _____ _____    ______ ____
ROOT
ATOM      1  N   UNL     1      -0.405   0.776  -1.172  0.00  0.00    -0.310 N 
ENDROOT
BRANCH   1   2
ATOM      2  C   UNL     1       0.497   1.768  -0.656  0.00  0.00    +0.122 A 
ATOM      3  C   UNL     1       1.175   2.631  -1.528  0.00  0.00    +0.043 A 
ATOM      4  C   UNL     1       2.065   3.572  -1.004  0.00  0.00    +0.005 A 
ATOM      5  C   UNL     1       2.270   3.641   0.375  0.00  0.00    +0.020 A 
ATOM      6  C   UNL     1       1.579   2.763   1.214  0.00  0.00    +0.113 A 
ATOM      7  N   UNL     1       0.717   1.854   0.685  0.00  0.00    -0.240 NA
ENDBRANCH   1   2
BRANCH   1   8
ATOM      8  C   UNL     1      -1.855   0.968  -1.016  0.00  0.00    +0.122 C 
BRANCH   8   9
ATOM      9  C   UNL     1      -2.302   0.746   0.435  0.00  0.00    +0.102 C 
BRANCH   9  11
ATOM     10  C   UNL     1      -1.637  -0.602   2.343  0.00  0.00    +0.104 C 
ATOM     11  N   UNL     1      -1.918  -0.606   0.898  0.00  0.00    -0.307 NA
ATOM     12  C   UNL     1      -2.979  -1.585   0.603  0.00  0.00    +0.104 C 
ENDBRANCH   9  11
ENDBRANCH   8   9
ENDBRANCH   1   8
BRANCH   1  13
ATOM     13  C   UNL     1       0.132  -0.321  -1.990  0.00  0.00    +0.141 C 
BRANCH  13  14
ATOM     14  C   UNL     1       0.867  -1.306  -1.121  0.00  0.00    -0.030 A 
ATOM     15  C   UNL     1       0.227  -2.473  -0.672  0.00  0.00    +0.006 A 
ATOM     16  C   UNL     1       0.892  -3.358   0.181  0.00  0.00    +0.020 A 
ATOM     17  C   UNL     1       2.203  -3.087   0.590  0.00  0.00    +0.041 A 
ATOM     18 CL   UNL     1       3.037  -4.196   1.663  0.00  0.00    -0.084 Cl
ATOM     19  C   UNL     1       2.850  -1.930   0.141  0.00  0.00    +0.020 A 
ATOM     20  C   UNL     1       2.186  -1.042  -0.711  0.00  0.00    +0.006 A 
ENDBRANCH  13  14
ENDBRANCH   1  13
TORSDOF 6
