REMARK  Name = 
REMARK  10 active torsions:
REMARK  status: ('A' for Active; 'I' for Inactive)
REMARK    1  A    between atoms: C_1  and  C_2
REMARK    2  A    between atoms: C_2  and  N_3
REMARK    3  A    between atoms: N_3  and  C_4
REMARK    4  A    between atoms: N_3  and  C_6
REMARK    5  A    between atoms: C_4  and  C_5
REMARK    6  A    between atoms: C_6  and  C_7
REMARK    7  A    between atoms: C_7  and  O_8
REMARK    8  A    between atoms: O_8  and  C_9
REMARK    9  A    between atoms: C_9  and  C_11
REMARK   10  A    between atoms: C_15  and  N_16
REMARK                            x       y       z     vdW  Elec       q    Type
REMARK                         _______ _______ _______ _____ _____    ______ ____
ROOT
ATOM      1  C   UNL     1       1.374  -0.904   0.194  0.00  0.00    +0.341 C 
ATOM      2  O   UNL     1       0.894  -1.981  -0.252  0.00  0.00    -0.245 OA
ENDROOT
BRANCH   1   3
ATOM      3  C   UNL     1       2.772  -0.507  -0.115  0.00  0.00    +0.077 A 
ATOM      4  C   UNL     1       3.746  -1.421  -0.594  0.00  0.00    +0.057 A 
ATOM      5 CL   UNL     1       3.424  -3.139  -0.819  0.00  0.00    -0.083 Cl
ATOM      6  C   UNL     1       5.043  -0.974  -0.877  0.00  0.00    +0.043 A 
ATOM      7  C   UNL     1       5.396   0.367  -0.688  0.00  0.00    +0.026 A 
ATOM      8  C   UNL     1       4.441   1.269  -0.208  0.00  0.00    +0.023 A 
ATOM      9  C   UNL     1       3.145   0.837   0.077  0.00  0.00    +0.018 A 
BRANCH   7  10
ATOM     10  N   UNL     1       6.723   0.811  -0.980  0.00  0.00    -0.358 N 
ATOM     11  H   UNL     1       7.444   0.145  -1.338  0.00  0.00    +0.142 HD
ATOM     12  H   UNL     1       6.996   1.810  -0.841  0.00  0.00    +0.142 HD
ENDBRANCH   7  10
ENDBRANCH   1   3
BRANCH   1  13
ATOM     13  O   UNL     1       0.575  -0.058   0.976  0.00  0.00    -0.460 OA
BRANCH  13  14
ATOM     14  C   UNL     1      -0.799  -0.312   1.260  0.00  0.00    +0.248 C 
BRANCH  14  15
ATOM     15  C   UNL     1      -1.669   0.019   0.048  0.00  0.00    +0.125 C 
BRANCH  15  16
ATOM     16  N   UNL     1      -3.094  -0.203   0.393  0.00  0.00    -0.300 NA
BRANCH  16  18
ATOM     17  C   UNL     1      -3.638   1.921   1.538  0.00  0.00    +0.020 C 
ATOM     18  C   UNL     1      -3.915   1.026   0.333  0.00  0.00    +0.081 C 
ENDBRANCH  16  18
BRANCH  16  19
ATOM     19  C   UNL     1      -3.699  -1.335  -0.347  0.00  0.00    +0.081 C 
ATOM     20  C   UNL     1      -3.963  -1.033  -1.830  0.00  0.00    +0.020 C 
ENDBRANCH  16  19
ENDBRANCH  15  16
ENDBRANCH  14  15
ENDBRANCH  13  14
ENDBRANCH   1  13
TORSDOF 8
