REMARK  Name = 
REMARK  4 active torsions:
REMARK  status: ('A' for Active; 'I' for Inactive)
REMARK    1  A    between atoms: N_1  and  S_2
REMARK    2  A    between atoms: S_2  and  C_5
REMARK    3  A    between atoms: C_10  and  C_12
REMARK    4  A    between atoms: C_12  and  O_13
REMARK                            x       y       z     vdW  Elec       q    Type
REMARK                         _______ _______ _______ _____ _____    ______ ____
ROOT
ATOM      1  C   UNL     1       2.720  -0.347  -0.483  0.00  0.00    +0.124 A 
ATOM      2  C   UNL     1       2.572  -1.664  -0.005  0.00  0.00    +0.067 A 
ATOM      3 CL   UNL     1       3.899  -2.821  -0.030  0.00  0.00    -0.082 Cl
ATOM      4  C   UNL     1       1.345  -2.078   0.521  0.00  0.00    +0.022 A 
ATOM      5  C   UNL     1       0.262  -1.200   0.567  0.00  0.00    +0.010 A 
ATOM      6  C   UNL     1       0.378   0.110   0.064  0.00  0.00    +0.009 A 
ATOM      7  C   UNL     1       1.627   0.532  -0.433  0.00  0.00    +0.038 A 
ENDROOT
BRANCH   6   8
ATOM      8  C   UNL     1      -0.795   1.081   0.162  0.00  0.00    +0.187 C 
ATOM      9  N   UNL     1      -0.941   1.534   1.550  0.00  0.00    -0.276 N 
ATOM     10  C   UNL     1      -2.237   1.181   2.015  0.00  0.00    +0.247 C 
ATOM     11  O   UNL     1      -2.667   1.441   3.169  0.00  0.00    -0.270 OA
ATOM     12  C   UNL     1      -2.961   0.494   0.977  0.00  0.00    +0.045 A 
ATOM     13  C   UNL     1      -4.244  -0.049   0.975  0.00  0.00    +0.013 A 
ATOM     14  C   UNL     1      -4.689  -0.688  -0.194  0.00  0.00    +0.001 A 
ATOM     15  C   UNL     1      -3.849  -0.770  -1.323  0.00  0.00    +0.000 A 
ATOM     16  C   UNL     1      -2.558  -0.214  -1.292  0.00  0.00    +0.009 A 
ATOM     17  C   UNL     1      -2.131   0.420  -0.122  0.00  0.00    +0.019 A 
ATOM     18  H   UNL     1      -0.224   2.059   2.098  0.00  0.00    +0.152 HD
BRANCH   8  19
ATOM     19  O   UNL     1      -0.631   2.204  -0.671  0.00  0.00    -0.364 OA
ATOM     20  H   UNL     1      -0.608   1.879  -1.609  0.00  0.00    +0.213 HD
ENDBRANCH   8  19
ENDBRANCH   6   8
BRANCH   1  21
ATOM     21  S   UNL     1       4.266   0.218  -1.129  0.00  0.00    +0.057 S 
ATOM     22  O   UNL     1       4.152   1.643  -1.593  0.00  0.00    -0.153 OA
ATOM     23  O   UNL     1       4.665  -0.640  -2.297  0.00  0.00    -0.153 OA
BRANCH  21  24
ATOM     24  N   UNL     1       5.475   0.123   0.103  0.00  0.00    -0.203 NA
ATOM     25  H   UNL     1       5.174   0.759   0.875  0.00  0.00    +0.144 HD
ATOM     26  H   UNL     1       6.352   0.527  -0.296  0.00  0.00    +0.144 HD
ENDBRANCH  21  24
ENDBRANCH   1  21
TORSDOF 4
