REMARK  Name = 
REMARK  6 active torsions:
REMARK  status: ('A' for Active; 'I' for Inactive)
REMARK    1  A    between atoms: O_1  and  C_2
REMARK    2  A    between atoms: C_2  and  C_3
REMARK    3  A    between atoms: C_3  and  O_4
REMARK    4  A    between atoms: C_3  and  C_5
REMARK    5  A    between atoms: C_5  and  O_6
REMARK    6  A    between atoms: O_6  and  C_7
REMARK                            x       y       z     vdW  Elec       q    Type
REMARK                         _______ _______ _______ _____ _____    ______ ____
ROOT
ATOM      1  O   UNL     1       0.047  -1.348  -0.205  0.00  0.00    -0.489 OA
ENDROOT
BRANCH   1   2
ATOM      2  C   UNL     1       1.232  -0.601  -0.100  0.00  0.00    +0.121 A 
ATOM      3  C   UNL     1       2.299  -1.159   0.617  0.00  0.00    +0.047 A 
ATOM      4  C   UNL     1       3.504  -0.466   0.755  0.00  0.00    +0.023 A 
ATOM      5  C   UNL     1       3.658   0.795   0.172  0.00  0.00    +0.041 A 
ATOM      6 CL   UNL     1       5.170   1.666   0.346  0.00  0.00    -0.084 Cl
ATOM      7  C   UNL     1       2.604   1.359  -0.553  0.00  0.00    +0.023 A 
ATOM      8  C   UNL     1       1.397   0.667  -0.694  0.00  0.00    +0.047 A 
ENDBRANCH   1   2
BRANCH   1   9
ATOM      9  C   UNL     1      -1.210  -0.877  -0.695  0.00  0.00    +0.262 C 
BRANCH   9  10
ATOM     10  C   UNL     1      -1.992  -0.151   0.416  0.00  0.00    +0.177 C 
BRANCH  10  11
ATOM     11  O   UNL     1      -1.292   0.983   0.862  0.00  0.00    -0.386 OA
ATOM     12  H   UNL     1      -1.292   1.646   0.123  0.00  0.00    +0.210 HD
ENDBRANCH  10  11
BRANCH  10  13
ATOM     13  C   UNL     1      -3.409   0.241  -0.042  0.00  0.00    +0.190 C 
BRANCH  13  14
ATOM     14  O   UNL     1      -4.202  -0.900  -0.237  0.00  0.00    -0.392 OA
ATOM     15  H   UNL     1      -4.133  -1.140  -1.198  0.00  0.00    +0.210 HD
ENDBRANCH  13  14
ENDBRANCH  10  13
ENDBRANCH   9  10
ENDBRANCH   1   9
TORSDOF 6
