REMARK  Name = 
REMARK  5 active torsions:
REMARK  status: ('A' for Active; 'I' for Inactive)
REMARK    1  A    between atoms: C_1  and  C_2
REMARK    2  A    between atoms: C_2  and  C_3
REMARK    3  A    between atoms: C_3  and  N_4
REMARK    4  A    between atoms: N_7  and  S_8
REMARK    5  A    between atoms: S_8  and  C_11
REMARK                            x       y       z     vdW  Elec       q    Type
REMARK                         _______ _______ _______ _____ _____    ______ ____
ROOT
ATOM      1  S   UNL     1       1.412  -1.420   0.702  0.00  0.00    +0.076 S 
ATOM      2  O   UNL     1       1.323  -1.787   2.157  0.00  0.00    -0.150 OA
ATOM      3  O   UNL     1       1.378  -2.675  -0.126  0.00  0.00    -0.150 OA
ENDROOT
BRANCH   1   4
ATOM      4  C   UNL     1       2.918  -0.559   0.403  0.00  0.00    +0.109 A 
ATOM      5  C   UNL     1       3.489   0.234   1.409  0.00  0.00    +0.030 A 
ATOM      6  C   UNL     1       4.677   0.930   1.166  0.00  0.00    +0.022 A 
ATOM      7  C   UNL     1       5.298   0.841  -0.085  0.00  0.00    +0.041 A 
ATOM      8 CL   UNL     1       6.788   1.715  -0.389  0.00  0.00    -0.084 Cl
ATOM      9  C   UNL     1       4.727   0.057  -1.093  0.00  0.00    +0.022 A 
ATOM     10  C   UNL     1       3.539  -0.639  -0.852  0.00  0.00    +0.030 A 
ENDBRANCH   1   4
BRANCH   1  14
ATOM     11  N   UNL     1      -2.347   0.044   0.040  0.00  0.00    -0.298 N 
ATOM     12  C   UNL     1      -1.277  -0.835   0.408  0.00  0.00    +0.319 C 
ATOM     13  O   UNL     1      -1.530  -1.990   0.850  0.00  0.00    -0.251 OA
ATOM     14  N   UNL     1       0.079  -0.400   0.274  0.00  0.00    -0.169 N 
ATOM     15  H   UNL     1      -2.106   0.999  -0.310  0.00  0.00    +0.150 HD
ATOM     16  H   UNL     1       0.281   0.557  -0.093  0.00  0.00    +0.178 HD
BRANCH  11  17
ATOM     17  C   UNL     1      -3.747  -0.362   0.168  0.00  0.00    +0.105 C 
BRANCH  17  19
ATOM     18  C   UNL     1      -4.643   0.884  -1.856  0.00  0.00    +0.005 C 
ATOM     19  C   UNL     1      -4.701   0.728  -0.337  0.00  0.00    +0.015 C 
ENDBRANCH  17  19
ENDBRANCH  11  17
ENDBRANCH   1  14
TORSDOF 4
