REMARK  Name = 
REMARK  2 active torsions:
REMARK  status: ('A' for Active; 'I' for Inactive)
REMARK    1  A    between atoms: C_1  and  N_2
REMARK    2  A    between atoms: C_3  and  C_4
REMARK                            x       y       z     vdW  Elec       q    Type
REMARK                         _______ _______ _______ _____ _____    ______ ____
ROOT
ATOM      1  C   UNL     1      -0.839  -2.267  -0.028  0.00  0.00    +0.134 C 
ATOM      2  N   UNL     1      -1.180  -0.850  -0.227  0.00  0.00    -0.279 N 
ATOM      3  C   UNL     1      -0.148   0.104  -0.698  0.00  0.00    +0.249 C 
ATOM      4  S   UNL     1      -0.660   1.825  -0.510  0.00  0.00    -0.007 S 
ATOM      5  O   UNL     1      -0.081   2.424   0.743  0.00  0.00    -0.172 OA
ATOM      6  O   UNL     1      -0.169   2.608  -1.695  0.00  0.00    -0.172 OA
ATOM      7  C   UNL     1      -2.435   1.947  -0.426  0.00  0.00    +0.177 C 
ATOM      8  C   UNL     1      -3.067   0.694  -1.005  0.00  0.00    +0.118 C 
ATOM      9  C   UNL     1      -2.583  -0.515  -0.264  0.00  0.00    +0.219 C 
ATOM     10  O   UNL     1      -3.425  -1.256   0.314  0.00  0.00    -0.276 OA
ENDROOT
BRANCH   3  11
ATOM     11  C   UNL     1       1.177  -0.093   0.014  0.00  0.00    -0.006 A 
ATOM     12  C   UNL     1       2.377  -0.105  -0.718  0.00  0.00    +0.008 A 
ATOM     13  C   UNL     1       3.602  -0.262  -0.064  0.00  0.00    +0.020 A 
ATOM     14  C   UNL     1       3.644  -0.400   1.327  0.00  0.00    +0.041 A 
ATOM     15 CL   UNL     1       5.183  -0.597   2.144  0.00  0.00    -0.084 Cl
ATOM     16  C   UNL     1       2.457  -0.376   2.065  0.00  0.00    +0.020 A 
ATOM     17  C   UNL     1       1.230  -0.218   1.415  0.00  0.00    +0.008 A 
ENDBRANCH   3  11
TORSDOF 1
