REMARK  Name = 
REMARK  5 active torsions:
REMARK  status: ('A' for Active; 'I' for Inactive)
REMARK    1  A    between atoms: C_1  and  C_2
REMARK    2  A    between atoms: C_2  and  C_3
REMARK    3  A    between atoms: C_3  and  N_4
REMARK    4  A    between atoms: N_4  and  C_5
REMARK    5  A    between atoms: N_4  and  C_6
REMARK                            x       y       z     vdW  Elec       q    Type
REMARK                         _______ _______ _______ _____ _____    ______ ____
ROOT
ATOM      1  C   UNL     1       0.093   1.033  -0.855  0.00  0.00    -0.017 C 
ATOM      2  C   UNL     1      -0.973   0.507  -0.216  0.00  0.00    -0.012 C 
ATOM      3  C   UNL     1      -2.138   1.363   0.121  0.00  0.00    -0.002 A 
ATOM      4  C   UNL     1      -1.974   2.612   0.745  0.00  0.00    +0.029 A 
ATOM      5  C   UNL     1      -3.092   3.322   1.199  0.00  0.00    +0.042 A 
ATOM      6 CL   UNL     1      -2.882   4.875   1.987  0.00  0.00    -0.084 Cl
ATOM      7  C   UNL     1      -4.374   2.783   1.049  0.00  0.00    +0.021 A 
ATOM      8  C   UNL     1      -4.545   1.542   0.428  0.00  0.00    +0.017 A 
ATOM      9  C   UNL     1      -3.435   0.840  -0.050  0.00  0.00    +0.021 A 
ATOM     10  S   UNL     1      -3.661  -0.694  -0.965  0.00  0.00    -0.088 S 
ATOM     11  C   UNL     1      -2.368  -1.553  -0.056  0.00  0.00    +0.020 A 
ATOM     12  C   UNL     1      -1.114  -0.935   0.131  0.00  0.00    -0.004 A 
ATOM     13  C   UNL     1      -0.119  -1.616   0.855  0.00  0.00    +0.009 A 
ATOM     14  C   UNL     1      -0.352  -2.910   1.329  0.00  0.00    +0.001 A 
ATOM     15  C   UNL     1      -1.593  -3.519   1.127  0.00  0.00    +0.001 A 
ATOM     16  C   UNL     1      -2.604  -2.837   0.446  0.00  0.00    +0.015 A 
ENDROOT
BRANCH   1  17
ATOM     17  C   UNL     1       1.258   0.247  -1.396  0.00  0.00    +0.043 C 
BRANCH  17  18
ATOM     18  C   UNL     1       2.544   0.602  -0.640  0.00  0.00    +0.088 C 
BRANCH  18  19
ATOM     19  N   UNL     1       3.676  -0.211  -1.134  0.00  0.00    -0.308 NA
ATOM     20  C   UNL     1       4.946   0.509  -0.944  0.00  0.00    +0.104 C 
ATOM     21  C   UNL     1       3.741  -1.507  -0.433  0.00  0.00    +0.104 C 
ENDBRANCH  18  19
ENDBRANCH  17  18
ENDBRANCH   1  17
TORSDOF 3
