REMARK  Name = 
REMARK  0 active torsions:
REMARK  status: ('A' for Active; 'I' for Inactive)
REMARK                            x       y       z     vdW  Elec       q    Type
REMARK                         _______ _______ _______ _____ _____    ______ ____
ROOT
ATOM      1 CL   UNL     1      -3.475  -1.277   0.213  0.00  0.00    -0.083 Cl
ATOM      2  C   UNL     1      -1.917  -0.473   0.160  0.00  0.00    +0.043 A 
ATOM      3  C   UNL     1      -0.755  -1.218  -0.125  0.00  0.00    +0.049 A 
ATOM      4  C   UNL     1       0.456  -0.532  -0.156  0.00  0.00    +0.089 A 
ATOM      5  C   UNL     1       0.536   0.811   0.079  0.00  0.00    +0.157 A 
ATOM      6  O   UNL     1       1.788   1.190  -0.012  0.00  0.00    -0.408 OA
ATOM      7  C   UNL     1       2.465   0.091  -0.300  0.00  0.00    +0.419 A 
ATOM      8  O   UNL     1       3.713   0.070  -0.464  0.00  0.00    -0.223 OA
ATOM      9  N   UNL     1       1.685  -1.012  -0.401  0.00  0.00    -0.288 N 
ATOM     10  C   UNL     1      -0.590   1.579   0.364  0.00  0.00    +0.050 A 
ATOM     11  C   UNL     1      -1.834   0.919   0.403  0.00  0.00    +0.024 A 
ATOM     12  H   UNL     1       1.969  -1.993  -0.617  0.00  0.00    +0.172 HD
ENDROOT
TORSDOF 0
