REMARK  Name = 
REMARK  9 active torsions:
REMARK  status: ('A' for Active; 'I' for Inactive)
REMARK    1  A    between atoms: C_5  and  N_6
REMARK    2  A    between atoms: N_12  and  C_13
REMARK    3  A    between atoms: C_13  and  C_14
REMARK    4  A    between atoms: C_14  and  C_15
REMARK    5  A    between atoms: C_15  and  C_16
REMARK    6  A    between atoms: C_16  and  C_17
REMARK    7  A    between atoms: C_17  and  C_18
REMARK    8  A    between atoms: C_18  and  N_19
REMARK    9  A    between atoms: N_25  and  C_26
REMARK                            x       y       z     vdW  Elec       q    Type
REMARK                         _______ _______ _______ _____ _____    ______ ____
ROOT
ATOM      1  C   UNL     1       0.505  -1.017  -3.054  0.00  0.00    +0.002 C 
ENDROOT
BRANCH   1   2
ATOM      2  C   UNL     1       1.594  -1.031  -1.971  0.00  0.00    +0.021 C 
BRANCH   2   3
ATOM      3  C   UNL     1       2.648  -2.102  -2.270  0.00  0.00    +0.115 C 
BRANCH   3  10
ATOM      4  N   UNL     1       7.800  -0.394   0.912  0.00  0.00    -0.326 N 
ATOM      5  C   UNL     1       6.478  -0.151   0.405  0.00  0.00    +0.201 C 
ATOM      6  N   UNL     1       5.930   1.017   0.549  0.00  0.00    -0.268 NA
ATOM      7  N   UNL     1       5.723  -1.251  -0.130  0.00  0.00    -0.297 N 
ATOM      8  C   UNL     1       4.719  -1.126  -1.152  0.00  0.00    +0.197 C 
ATOM      9  N   UNL     1       4.793  -0.186  -2.045  0.00  0.00    -0.268 NA
ATOM     10  N   UNL     1       3.679  -2.111  -1.232  0.00  0.00    -0.356 N 
ATOM     11  H   UNL     1       8.070  -1.385   1.103  0.00  0.00    +0.169 HD
ATOM     12  H   UNL     1       4.947   1.216   0.259  0.00  0.00    +0.190 HD
ATOM     13  H   UNL     1       5.930  -2.208   0.235  0.00  0.00    +0.172 HD
ATOM     14  H   UNL     1       5.561   0.520  -2.059  0.00  0.00    +0.190 HD
ATOM     15  H   UNL     1       3.687  -2.904  -0.552  0.00  0.00    +0.162 HD
BRANCH   4  20
ATOM     16 CL   UNL     1      11.851   3.821   2.273  0.00  0.00    -0.084 Cl
ATOM     17  C   UNL     1      10.661   2.597   1.873  0.00  0.00    +0.041 A 
ATOM     18  C   UNL     1       9.765   2.808   0.819  0.00  0.00    +0.022 A 
ATOM     19  C   UNL     1       8.816   1.833   0.497  0.00  0.00    +0.027 A 
ATOM     20  C   UNL     1       8.748   0.637   1.238  0.00  0.00    +0.042 A 
ATOM     21  C   UNL     1       9.668   0.423   2.276  0.00  0.00    +0.027 A 
ATOM     22  C   UNL     1      10.614   1.401   2.597  0.00  0.00    +0.022 A 
ENDBRANCH   4  20
ENDBRANCH   3  10
ENDBRANCH   2   3
ENDBRANCH   1   2
BRANCH   1  23
ATOM     23  C   UNL     1      -0.500   0.136  -2.878  0.00  0.00    +0.002 C 
BRANCH  23  24
ATOM     24  C   UNL     1      -1.336   0.076  -1.587  0.00  0.00    +0.021 C 
BRANCH  24  25
ATOM     25  C   UNL     1      -2.190  -1.196  -1.488  0.00  0.00    +0.115 C 
BRANCH  25  26
ATOM     26  N   UNL     1      -3.153  -1.085  -0.391  0.00  0.00    -0.356 N 
ATOM     27  C   UNL     1      -4.374  -0.321  -0.440  0.00  0.00    +0.197 C 
ATOM     28  N   UNL     1      -4.728   0.314  -1.516  0.00  0.00    -0.268 NA
ATOM     29  N   UNL     1      -5.218  -0.293   0.728  0.00  0.00    -0.297 N 
ATOM     30  C   UNL     1      -6.461   0.423   0.847  0.00  0.00    +0.201 C 
ATOM     31  N   UNL     1      -6.836   1.254  -0.079  0.00  0.00    -0.268 NA
ATOM     32  N   UNL     1      -7.234   0.277   2.050  0.00  0.00    -0.326 N 
ATOM     33  H   UNL     1      -2.957  -1.640   0.473  0.00  0.00    +0.162 HD
ATOM     34  H   UNL     1      -4.172   0.326  -2.398  0.00  0.00    +0.190 HD
ATOM     35  H   UNL     1      -4.920  -0.866   1.549  0.00  0.00    +0.172 HD
ATOM     36  H   UNL     1      -7.703   1.830   0.001  0.00  0.00    +0.190 HD
ATOM     37  H   UNL     1      -6.716   0.077   2.936  0.00  0.00    +0.169 HD
BRANCH  32  38
ATOM     38  C   UNL     1      -8.669   0.345   2.109  0.00  0.00    +0.042 A 
ATOM     39  C   UNL     1      -9.292   0.730   3.307  0.00  0.00    +0.027 A 
ATOM     40  C   UNL     1     -10.687   0.771   3.397  0.00  0.00    +0.022 A 
ATOM     41  C   UNL     1     -11.473   0.415   2.297  0.00  0.00    +0.041 A 
ATOM     42 CL   UNL     1     -13.223   0.463   2.414  0.00  0.00    -0.084 Cl
ATOM     43  C   UNL     1     -10.862   0.010   1.107  0.00  0.00    +0.022 A 
ATOM     44  C   UNL     1      -9.467  -0.033   1.013  0.00  0.00    +0.027 A 
ENDBRANCH  32  38
ENDBRANCH  25  26
ENDBRANCH  24  25
ENDBRANCH  23  24
ENDBRANCH   1  23
TORSDOF 9
