REMARK  Name = 
REMARK  1 active torsions:
REMARK  status: ('A' for Active; 'I' for Inactive)
REMARK    1  A    between atoms: O_1  and  C_2
REMARK                            x       y       z     vdW  Elec       q    Type
REMARK                         _______ _______ _______ _____ _____    ______ ____
ROOT
ATOM      1  C   UNL     1      -0.861  -0.061   1.434  0.00  0.00    +0.161 A 
ATOM      2  C   UNL     1      -1.446   1.214   1.317  0.00  0.00    +0.086 A 
ATOM      3 CL   UNL     1      -2.535   1.844   2.546  0.00  0.00    -0.080 Cl
ATOM      4  C   UNL     1      -1.165   2.012   0.204  0.00  0.00    +0.044 A 
ATOM      5  C   UNL     1      -0.305   1.562  -0.803  0.00  0.00    +0.052 A 
ATOM      6 CL   UNL     1      -0.004   2.629  -2.172  0.00  0.00    -0.083 Cl
ATOM      7  C   UNL     1       0.287   0.286  -0.698  0.00  0.00    +0.022 A 
ATOM      8  C   UNL     1       0.002  -0.523   0.430  0.00  0.00    +0.115 A 
ATOM      9  N   UNL     1       0.569  -1.756   0.540  0.00  0.00    -0.251 NA
ATOM     10  C   UNL     1       1.411  -2.248  -0.405  0.00  0.00    +0.111 A 
ATOM     11  C   UNL     1       1.720  -1.487  -1.532  0.00  0.00    +0.020 A 
ATOM     12  C   UNL     1       1.158  -0.218  -1.680  0.00  0.00    +0.013 A 
ENDROOT
BRANCH   1  13
ATOM     13  O   UNL     1      -1.122  -0.883   2.534  0.00  0.00    -0.503 OA
ATOM     14  H   UNL     1      -1.735  -0.609   3.291  0.00  0.00    +0.292 HD
ENDBRANCH   1  13
TORSDOF 1
