REMARK  Name = 
REMARK  11 active torsions:
REMARK  status: ('A' for Active; 'I' for Inactive)
REMARK    1  A    between atoms: C_1  and  C_2
REMARK    2  A    between atoms: C_2  and  N_3
REMARK    3  A    between atoms: N_3  and  C_4
REMARK    4  A    between atoms: N_3  and  C_6
REMARK    5  A    between atoms: C_4  and  C_5
REMARK    6  A    between atoms: C_6  and  C_7
REMARK    7  A    between atoms: C_7  and  C_8
REMARK    8  A    between atoms: C_8  and  C_9
REMARK    9  A    between atoms: C_9  and  C_10
REMARK   10  A    between atoms: C_9  and  N_11
REMARK   11  A    between atoms: N_11  and  C_12
REMARK                            x       y       z     vdW  Elec       q    Type
REMARK                         _______ _______ _______ _____ _____    ______ ____
ROOT
ATOM      1  N   UNL     1       1.844   1.157  -0.101  0.00  0.00    -0.341 N 
ATOM      2  H   UNL     1       2.086   2.165   0.032  0.00  0.00    +0.146 HD
ENDROOT
BRANCH   1   3
ATOM      3  C   UNL     1       2.795   0.289  -0.741  0.00  0.00    +0.038 A 
ATOM      4  C   UNL     1       4.175   0.371  -0.448  0.00  0.00    +0.021 A 
ATOM      5  C   UNL     1       4.686   1.244   0.533  0.00  0.00    +0.013 A 
ATOM      6  C   UNL     1       6.060   1.292   0.788  0.00  0.00    +0.021 A 
ATOM      7  C   UNL     1       6.938   0.469   0.078  0.00  0.00    +0.043 A 
ATOM      8 CL   UNL     1       8.659   0.538   0.406  0.00  0.00    -0.083 Cl
ATOM      9  C   UNL     1       6.444  -0.421  -0.876  0.00  0.00    +0.048 A 
ATOM     10  C   UNL     1       5.071  -0.478  -1.143  0.00  0.00    +0.074 A 
ATOM     11  N   UNL     1       4.601  -1.358  -2.065  0.00  0.00    -0.255 NA
ATOM     12  C   UNL     1       3.279  -1.454  -2.355  0.00  0.00    +0.113 A 
ATOM     13  C   UNL     1       2.357  -0.636  -1.702  0.00  0.00    +0.043 A 
ENDBRANCH   1   3
BRANCH   1  14
ATOM     14  C   UNL     1       0.552   0.686   0.405  0.00  0.00    +0.067 C 
ATOM     15  C   UNL     1       0.481   0.987   1.909  0.00  0.00    +0.028 C 
BRANCH  14  16
ATOM     16  C   UNL     1      -0.594   1.371  -0.381  0.00  0.00    +0.023 C 
BRANCH  16  17
ATOM     17  C   UNL     1      -1.794   0.450  -0.669  0.00  0.00    +0.017 C 
BRANCH  17  18
ATOM     18  C   UNL     1      -2.559   0.044   0.608  0.00  0.00    +0.084 C 
BRANCH  18  19
ATOM     19  N   UNL     1      -3.919  -0.492   0.351  0.00  0.00    -0.303 NA
BRANCH  19  21
ATOM     20  C   UNL     1      -6.207   0.391   0.540  0.00  0.00    +0.020 C 
ATOM     21  C   UNL     1      -4.852   0.547  -0.141  0.00  0.00    +0.081 C 
ENDBRANCH  19  21
BRANCH  19  22
ATOM     22  C   UNL     1      -3.945  -1.699  -0.506  0.00  0.00    +0.081 C 
ATOM     23  C   UNL     1      -3.292  -2.896   0.177  0.00  0.00    +0.020 C 
ENDBRANCH  19  22
ENDBRANCH  18  19
ENDBRANCH  17  18
ENDBRANCH  16  17
ENDBRANCH  14  16
ENDBRANCH   1  14
TORSDOF 8
