REMARK  Name = 
REMARK  8 active torsions:
REMARK  status: ('A' for Active; 'I' for Inactive)
REMARK    1  A    between atoms: C_1  and  N_2
REMARK    2  A    between atoms: N_2  and  C_3
REMARK    3  A    between atoms: N_2  and  C_4
REMARK    4  A    between atoms: C_4  and  C_5
REMARK    5  A    between atoms: C_5  and  C_6
REMARK    6  A    between atoms: C_6  and  O_7
REMARK    7  A    between atoms: C_6  and  C_8
REMARK    8  A    between atoms: C_6  and  C_14
REMARK                            x       y       z     vdW  Elec       q    Type
REMARK                         _______ _______ _______ _____ _____    ______ ____
ROOT
ATOM      1  C   UNL     1      -0.418  -0.350   0.588  0.00  0.00    +0.118 C 
ENDROOT
BRANCH   1   2
ATOM      2  C   UNL     1      -0.830   1.137   0.475  0.00  0.00    +0.007 A 
ATOM      3  C   UNL     1      -0.954   1.932   1.639  0.00  0.00    +0.008 A 
ATOM      4  C   UNL     1      -1.307   3.280   1.557  0.00  0.00    +0.000 A 
ATOM      5  C   UNL     1      -1.545   3.869   0.319  0.00  0.00    +0.001 A 
ATOM      6  C   UNL     1      -1.432   3.112  -0.844  0.00  0.00    +0.020 A 
ATOM      7  C   UNL     1      -1.079   1.758  -0.784  0.00  0.00    +0.047 A 
ATOM      8 CL   UNL     1      -0.980   0.900  -2.320  0.00  0.00    -0.083 Cl
ENDBRANCH   1   2
BRANCH   1   9
ATOM      9  C   UNL     1      -1.486  -1.231  -0.080  0.00  0.00    -0.012 A 
ATOM     10  C   UNL     1      -2.853  -0.972   0.173  0.00  0.00    +0.007 A 
ATOM     11  C   UNL     1      -3.852  -1.777  -0.379  0.00  0.00    +0.000 A 
ATOM     12  C   UNL     1      -3.511  -2.873  -1.170  0.00  0.00    +0.000 A 
ATOM     13  C   UNL     1      -2.169  -3.176  -1.397  0.00  0.00    +0.000 A 
ATOM     14  C   UNL     1      -1.163  -2.376  -0.847  0.00  0.00    +0.007 A 
ENDBRANCH   1   9
BRANCH   1  15
ATOM     15  O   UNL     1      -0.406  -0.767   1.939  0.00  0.00    -0.379 OA
ATOM     16  H   UNL     1       0.408  -0.423   2.387  0.00  0.00    +0.211 HD
ENDBRANCH   1  15
BRANCH   1  17
ATOM     17  C   UNL     1       1.011  -0.562  -0.031  0.00  0.00    +0.060 C 
BRANCH  17  18
ATOM     18  C   UNL     1       2.054   0.526   0.346  0.00  0.00    +0.087 C 
BRANCH  18  20
ATOM     19  C   UNL     1       3.542   0.102  -1.571  0.00  0.00    +0.104 C 
ATOM     20  N   UNL     1       3.432   0.231  -0.110  0.00  0.00    -0.308 NA
ATOM     21  C   UNL     1       4.032  -0.924   0.577  0.00  0.00    +0.104 C 
ENDBRANCH  18  20
ENDBRANCH  17  18
ENDBRANCH   1  17
TORSDOF 6
