REMARK  Name = 
REMARK  7 active torsions:
REMARK  status: ('A' for Active; 'I' for Inactive)
REMARK    1  A    between atoms: C_1  and  N_2
REMARK    2  A    between atoms: N_2  and  C_3
REMARK    3  A    between atoms: N_2  and  C_4
REMARK    4  A    between atoms: C_4  and  C_5
REMARK    5  A    between atoms: C_5  and  C_6
REMARK    6  A    between atoms: C_6  and  C_7
REMARK    7  A    between atoms: C_6  and  C_14
REMARK                            x       y       z     vdW  Elec       q    Type
REMARK                         _______ _______ _______ _____ _____    ______ ____
ROOT
ATOM      1  C   UNL     1      -0.053  -0.305   0.035  0.00  0.00    +0.069 C 
ENDROOT
BRANCH   1   2
ATOM      2  C   UNL     1      -1.320  -1.141   0.057  0.00  0.00    -0.038 A 
ATOM      3  C   UNL     1      -1.472  -2.164   1.012  0.00  0.00    +0.006 A 
ATOM      4  C   UNL     1      -2.635  -2.940   1.042  0.00  0.00    +0.020 A 
ATOM      5  C   UNL     1      -3.659  -2.706   0.120  0.00  0.00    +0.041 A 
ATOM      6 CL   UNL     1      -5.117  -3.681   0.160  0.00  0.00    -0.084 Cl
ATOM      7  C   UNL     1      -3.520  -1.694  -0.834  0.00  0.00    +0.020 A 
ATOM      8  C   UNL     1      -2.360  -0.916  -0.868  0.00  0.00    +0.006 A 
ENDBRANCH   1   2
BRANCH   1   9
ATOM      9  C   UNL     1      -0.387   1.149   0.290  0.00  0.00    +0.049 A 
ATOM     10  C   UNL     1      -0.324   1.674   1.591  0.00  0.00    +0.024 A 
ATOM     11  C   UNL     1      -0.663   3.010   1.809  0.00  0.00    +0.003 A 
ATOM     12  C   UNL     1      -1.072   3.808   0.740  0.00  0.00    +0.020 A 
ATOM     13  C   UNL     1      -1.141   3.252  -0.539  0.00  0.00    +0.111 A 
ATOM     14  N   UNL     1      -0.805   1.949  -0.733  0.00  0.00    -0.259 NA
ENDBRANCH   1   9
BRANCH   1  15
ATOM     15  C   UNL     1       0.728  -0.525  -1.282  0.00  0.00    +0.029 C 
BRANCH  15  16
ATOM     16  C   UNL     1       2.029   0.305  -1.437  0.00  0.00    +0.085 C 
BRANCH  16  18
ATOM     17  C   UNL     1       3.393  -1.452  -0.323  0.00  0.00    +0.104 C 
ATOM     18  N   UNL     1       3.139  -0.016  -0.507  0.00  0.00    -0.308 NA
ATOM     19  C   UNL     1       3.102   0.713   0.771  0.00  0.00    +0.104 C 
ENDBRANCH  16  18
ENDBRANCH  15  16
ENDBRANCH   1  15
TORSDOF 5
