REMARK  Name = 
REMARK  6 active torsions:
REMARK  status: ('A' for Active; 'I' for Inactive)
REMARK    1  A    between atoms: C_1  and  O_2
REMARK    2  A    between atoms: O_2  and  C_3
REMARK    3  A    between atoms: C_3  and  C_4
REMARK    4  A    between atoms: C_3  and  C_9
REMARK    5  A    between atoms: C_4  and  N_5
REMARK    6  A    between atoms: C_9  and  HG_10
REMARK                            x       y       z     vdW  Elec       q    Type
REMARK                         _______ _______ _______ _____ _____    ______ ____
ROOT
ATOM      1  C   UNL     1       0.541   2.776   0.454  0.00  0.00    +0.000 C 
ENDROOT
BRANCH   1   2
ATOM      2  N   UNL     1       1.031   1.925   1.549  0.00  0.00    +0.000 N 
ATOM      3  C   UNL     1       1.876   2.501   2.605  0.00  0.00    +0.000 C 
ATOM      4  N   UNL     1       2.366   1.650   3.699  0.00  0.00    +0.000 N 
ATOM      5  O   UNL     1       2.184   3.733   2.572  0.00  0.00    +0.000 OA
ATOM      6  H   UNL     1       0.785   0.936   1.575  0.00  0.00    +0.000 HD
ATOM      7  H   UNL     1       2.953   2.049   4.432  0.00  0.00    +0.000 HD
ATOM      8  H   UNL     1       2.120   0.661   3.725  0.00  0.00    +0.000 HD
ENDBRANCH   1   2
BRANCH   1   9
ATOM      9  C   UNL     1       1.048   2.236  -0.873  0.00  0.00    +0.000 C 
BRANCH   9  11
ATOM     10  C   UNL     1       1.048   0.088   0.001  0.00  0.00    +0.000 C 
ATOM     11  O   UNL     1       0.575   0.909  -1.056  0.00  0.00    +0.000 OA
ENDBRANCH   9  11
BRANCH   9  12
ATOM     12  C   UNL     1       2.568   2.236  -0.873  0.00  0.00    +0.000 C 
BRANCH  12  13
ATOM     13 HG   UNL     1       3.261   1.496  -2.689  0.00  0.00    +0.000 Hg
ATOM     14 CL   UNL     1       4.041   0.665  -4.733  0.00  0.00    +0.000 Cl
ENDBRANCH  12  13
ENDBRANCH   9  12
ENDBRANCH   1   9
TORSDOF 5
