REMARK  Name = 
REMARK  2 active torsions:
REMARK  status: ('A' for Active; 'I' for Inactive)
REMARK    1  A    between atoms: N_1  and  S_2
REMARK    2  A    between atoms: S_2  and  C_5
REMARK                            x       y       z     vdW  Elec       q    Type
REMARK                         _______ _______ _______ _____ _____    ______ ____
ROOT
ATOM      1  C   UNL     1      -1.346   0.405   0.378  0.00  0.00    +0.125 A 
ATOM      2  C   UNL     1      -0.747   1.632   0.728  0.00  0.00    +0.069 A 
ATOM      3 CL   UNL     1      -1.690   2.984   1.347  0.00  0.00    -0.081 Cl
ATOM      4  C   UNL     1       0.636   1.798   0.592  0.00  0.00    +0.047 A 
ATOM      5  C   UNL     1       1.442   0.755   0.112  0.00  0.00    +0.061 A 
ATOM      6  N   UNL     1       2.862   0.960  -0.015  0.00  0.00    -0.303 N 
ATOM      7  C   UNL     1       3.810  -0.013  -0.489  0.00  0.00    +0.209 C 
ATOM      8  N   UNL     1       3.467  -1.208  -0.858  0.00  0.00    -0.121 NA
ATOM      9  S   UNL     1       1.837  -1.768  -0.823  0.00  0.00    +0.102 S 
ATOM     10  O   UNL     1       1.405  -2.147  -2.212  0.00  0.00    -0.146 OA
ATOM     11  O   UNL     1       1.731  -2.950   0.098  0.00  0.00    -0.146 OA
ATOM     12  C   UNL     1       0.844  -0.464  -0.230  0.00  0.00    +0.135 A 
ATOM     13  C   UNL     1      -0.538  -0.639  -0.097  0.00  0.00    +0.061 A 
ATOM     14  H   UNL     1       3.253   1.891   0.256  0.00  0.00    +0.153 HD
ENDROOT
BRANCH   1  15
ATOM     15  S   UNL     1      -3.090   0.161   0.537  0.00  0.00    +0.057 S 
ATOM     16  O   UNL     1      -3.475   0.266   1.986  0.00  0.00    -0.153 OA
ATOM     17  O   UNL     1      -3.818   1.211  -0.254  0.00  0.00    -0.153 OA
BRANCH  15  18
ATOM     18  N   UNL     1      -3.549  -1.400  -0.052  0.00  0.00    -0.203 NA
ATOM     19  H   UNL     1      -4.573  -1.504   0.126  0.00  0.00    +0.144 HD
ATOM     20  H   UNL     1      -3.427  -1.384  -1.089  0.00  0.00    +0.144 HD
ENDBRANCH  15  18
ENDBRANCH   1  15
TORSDOF 2
