REMARK  Name = 
REMARK  2 active torsions:
REMARK  status: ('A' for Active; 'I' for Inactive)
REMARK    1  A    between atoms: C_1  and  N_2
REMARK    2  A    between atoms: C_12  and  C_13
REMARK                            x       y       z     vdW  Elec       q    Type
REMARK                         _______ _______ _______ _____ _____    ______ ____
ROOT
ATOM      1  C   UNL     1      -4.532  -1.276   0.762  0.00  0.00    +0.126 C 
ATOM      2  N   UNL     1      -3.588  -1.478  -0.331  0.00  0.00    -0.334 N 
ATOM      3  C   UNL     1      -2.492  -0.582  -0.568  0.00  0.00    +0.119 C 
ATOM      4  N   UNL     1      -2.316   0.445   0.210  0.00  0.00    -0.235 NA
ATOM      5  C   UNL     1      -1.250   1.405   0.116  0.00  0.00    +0.075 A 
ATOM      6  C   UNL     1       0.075   1.062  -0.272  0.00  0.00    +0.029 A 
ATOM      7  C   UNL     1       1.043   2.084  -0.349  0.00  0.00    +0.032 A 
ATOM      8  C   UNL     1       0.721   3.404  -0.023  0.00  0.00    +0.042 A 
ATOM      9 CL   UNL     1       1.946   4.656  -0.121  0.00  0.00    -0.084 Cl
ATOM     10  C   UNL     1      -0.570   3.723   0.394  0.00  0.00    +0.022 A 
ATOM     11  C   UNL     1      -1.545   2.729   0.468  0.00  0.00    +0.030 A 
ATOM     12  C   UNL     1       0.510  -0.350  -0.525  0.00  0.00    +0.096 C 
ATOM     13  N   UNL     1      -0.245  -1.205  -1.173  0.00  0.00    -0.156 N 
ATOM     14  O   UNL     1       0.147  -2.521  -1.297  0.00  0.00    -0.168 OA
ATOM     15  C   UNL     1      -1.554  -0.843  -1.707  0.00  0.00    +0.236 C 
ATOM     16  H   UNL     1      -3.719  -2.307  -0.953  0.00  0.00    +0.147 HD
ENDROOT
BRANCH  12  17
ATOM     17  C   UNL     1       1.838  -0.775  -0.009  0.00  0.00    +0.002 A 
ATOM     18  C   UNL     1       2.175  -0.548   1.337  0.00  0.00    +0.010 A 
ATOM     19  C   UNL     1       3.431  -0.924   1.822  0.00  0.00    +0.001 A 
ATOM     20  C   UNL     1       4.362  -1.523   0.968  0.00  0.00    +0.000 A 
ATOM     21  C   UNL     1       4.038  -1.743  -0.374  0.00  0.00    +0.001 A 
ATOM     22  C   UNL     1       2.783  -1.368  -0.863  0.00  0.00    +0.010 A 
ENDBRANCH  12  17
TORSDOF 1
