REMARK  Name = 
REMARK  9 active torsions:
REMARK  status: ('A' for Active; 'I' for Inactive)
REMARK    1  A    between atoms: C_1  and  O_2
REMARK    2  A    between atoms: O_2  and  C_3
REMARK    3  A    between atoms: C_6  and  C_9
REMARK    4  A    between atoms: C_11  and  C_12
REMARK    5  A    between atoms: C_11  and  C_20
REMARK    6  A    between atoms: C_15  and  O_16
REMARK    7  A    between atoms: O_16  and  C_17
REMARK    8  A    between atoms: C_23  and  O_24
REMARK    9  A    between atoms: O_24  and  C_25
REMARK                            x       y       z     vdW  Elec       q    Type
REMARK                         _______ _______ _______ _____ _____    ______ ____
ROOT
ATOM      1  C   UNL     1       1.304   1.177  -0.742  0.00  0.00    +0.056 C 
ATOM      2 CL   UNL     1       1.862   2.634  -1.571  0.00  0.00    -0.082 Cl
ATOM      3  C   UNL     1       0.045   1.101  -0.238  0.00  0.00    +0.008 C 
ENDROOT
BRANCH   1   7
ATOM      4  C   UNL     1       4.118  -2.066  -0.493  0.00  0.00    +0.120 A 
ATOM      5  C   UNL     1       3.853  -1.444  -1.719  0.00  0.00    +0.046 A 
ATOM      6  C   UNL     1       2.941  -0.388  -1.799  0.00  0.00    +0.013 A 
ATOM      7  C   UNL     1       2.270   0.057  -0.650  0.00  0.00    -0.006 A 
ATOM      8  C   UNL     1       2.549  -0.552   0.585  0.00  0.00    +0.013 A 
ATOM      9  C   UNL     1       3.459  -1.609   0.664  0.00  0.00    +0.046 A 
BRANCH   4  11
ATOM     10  C   UNL     1       5.398  -3.848   0.705  0.00  0.00    +0.277 C 
ATOM     11  O   UNL     1       5.038  -3.124  -0.468  0.00  0.00    -0.495 OA
ENDBRANCH   4  11
ENDBRANCH   1   7
BRANCH   3  12
ATOM     12  C   UNL     1      -0.840   2.291  -0.208  0.00  0.00    -0.016 A 
ATOM     13  C   UNL     1      -2.102   2.242  -0.820  0.00  0.00    +0.012 A 
ATOM     14  C   UNL     1      -2.956   3.348  -0.768  0.00  0.00    +0.046 A 
ATOM     15  C   UNL     1      -2.563   4.517  -0.090  0.00  0.00    +0.120 A 
ATOM     16  C   UNL     1      -1.310   4.556   0.533  0.00  0.00    +0.046 A 
ATOM     17  C   UNL     1      -0.456   3.452   0.481  0.00  0.00    +0.012 A 
BRANCH  15  18
ATOM     18  O   UNL     1      -3.383   5.652  -0.009  0.00  0.00    -0.495 OA
ATOM     19  C   UNL     1      -4.678   5.751  -0.593  0.00  0.00    +0.277 C 
ENDBRANCH  15  18
ENDBRANCH   3  12
BRANCH   3  20
ATOM     20  C   UNL     1      -0.523  -0.177   0.265  0.00  0.00    -0.016 A 
ATOM     21  C   UNL     1      -1.115  -0.228   1.536  0.00  0.00    +0.012 A 
ATOM     22  C   UNL     1      -1.659  -1.424   2.014  0.00  0.00    +0.046 A 
ATOM     23  C   UNL     1      -1.631  -2.583   1.230  0.00  0.00    +0.120 A 
ATOM     24  C   UNL     1      -1.053  -2.529  -0.053  0.00  0.00    +0.046 A 
ATOM     25  C   UNL     1      -0.511  -1.334  -0.532  0.00  0.00    +0.012 A 
BRANCH  23  26
ATOM     26  O   UNL     1      -2.185  -3.758   1.758  0.00  0.00    -0.495 OA
ATOM     27  C   UNL     1      -2.221  -5.007   1.074  0.00  0.00    +0.277 C 
ENDBRANCH  23  26
ENDBRANCH   3  20
TORSDOF 6
