REMARK  Name = 
REMARK  11 active torsions:
REMARK  status: ('A' for Active; 'I' for Inactive)
REMARK    1  A    between atoms: C_1  and  C_2
REMARK    2  A    between atoms: C_2  and  C_3
REMARK    3  A    between atoms: C_2  and  C_4
REMARK    4  A    between atoms: C_4  and  C_5
REMARK    5  A    between atoms: C_5  and  C_6
REMARK    6  A    between atoms: C_6  and  C_7
REMARK    7  A    between atoms: C_7  and  C_8
REMARK    8  A    between atoms: C_7  and  C_9
REMARK    9  A    between atoms: C_17  and  C_18
REMARK   10  A    between atoms: C_19  and  C_20
REMARK   11  A    between atoms: C_23  and  O_24
REMARK                            x       y       z     vdW  Elec       q    Type
REMARK                         _______ _______ _______ _____ _____    ______ ____
ROOT
ATOM      1  C   UNL     1       1.622   0.133  -0.781  0.00  0.00    -0.002 C 
ATOM      2  C   UNL     1       0.914  -0.702  -1.879  0.00  0.00    +0.005 C 
ATOM      3  C   UNL     1      -0.594  -0.523  -1.664  0.00  0.00    +0.009 C 
ATOM      4  C   UNL     1      -0.699   0.645  -0.689  0.00  0.00    +0.021 C 
ATOM      5  C   UNL     1      -1.975   0.868   0.095  0.00  0.00    -0.066 C 
ATOM      6  C   UNL     1      -1.881   1.868   1.238  0.00  0.00    +0.031 C 
ATOM      7  C   UNL     1      -0.565   2.680   1.205  0.00  0.00    +0.005 C 
ATOM      8  C   UNL     1       0.724   1.831   1.027  0.00  0.00    +0.008 C 
ATOM      9  C   UNL     1       0.509   0.487   0.255  0.00  0.00    -0.022 C 
ATOM     10  C   UNL     1       0.283  -0.665   1.279  0.00  0.00    +0.012 C 
ATOM     11  C   UNL     1      -3.137   0.280  -0.248  0.00  0.00    -0.000 C 
ENDROOT
BRANCH  11  12
ATOM     12  C   UNL     1      -4.389   0.444   0.526  0.00  0.00    +0.004 C 
ATOM     13  C   UNL     1      -5.614   0.128   0.057  0.00  0.00    -0.042 C 
ATOM     14  C   UNL     1      -6.798   0.168   0.995  0.00  0.00    +0.066 C 
ATOM     15  C   UNL     1      -7.759  -1.006   0.725  0.00  0.00    +0.119 C 
ATOM     16  C   UNL     1      -8.173  -1.057  -0.757  0.00  0.00    +0.036 C 
ATOM     17  C   UNL     1      -6.950  -1.238  -1.665  0.00  0.00    +0.037 C 
ATOM     18  C   UNL     1      -5.902  -0.191  -1.369  0.00  0.00    -0.051 C 
ATOM     19  C   UNL     1      -5.301   0.483  -2.356  0.00  0.00    +0.012 C 
BRANCH  15  20
ATOM     20  O   UNL     1      -8.892  -0.919   1.552  0.00  0.00    -0.391 OA
ATOM     21  H   UNL     1      -9.366  -0.076   1.326  0.00  0.00    +0.210 HD
ENDBRANCH  15  20
ENDBRANCH  11  12
BRANCH   1  22
ATOM     22  C   UNL     1       3.008  -0.446  -0.324  0.00  0.00    -0.010 C 
ATOM     23  C   UNL     1       2.995  -1.860   0.303  0.00  0.00    +0.008 C 
BRANCH  22  24
ATOM     24  C   UNL     1       3.773   0.561   0.573  0.00  0.00    +0.003 C 
BRANCH  24  25
ATOM     25  C   UNL     1       5.241   0.188   0.857  0.00  0.00    +0.001 C 
BRANCH  25  26
ATOM     26  C   UNL     1       6.113   0.163  -0.411  0.00  0.00    +0.003 C 
BRANCH  26  28
ATOM     27  C   UNL     1       8.436   0.318  -1.384  0.00  0.00    +0.007 C 
ATOM     28  C   UNL     1       7.625   0.132  -0.095  0.00  0.00    -0.017 C 
ATOM     29  C   UNL     1       8.038  -1.177   0.596  0.00  0.00    +0.007 C 
ENDBRANCH  26  28
ENDBRANCH  25  26
ENDBRANCH  24  25
ENDBRANCH  22  24
ENDBRANCH   1  22
TORSDOF 7
