REMARK  Name = 
REMARK  3 active torsions:
REMARK  status: ('A' for Active; 'I' for Inactive)
REMARK    1  A    between atoms: C_1  and  C_2
REMARK    2  A    between atoms: N_6  and  O_7
REMARK    3  A    between atoms: C_8  and  C_10
REMARK                            x       y       z     vdW  Elec       q    Type
REMARK                         _______ _______ _______ _____ _____    ______ ____
ROOT
ATOM      1  C   UNL     1      -3.775  -1.629   0.260  0.00  0.00    +0.044 C 
ATOM      2  C   UNL     1      -2.917  -0.406   0.111  0.00  0.00    -0.043 A 
ATOM      3  C   UNL     1      -3.499   0.840  -0.116  0.00  0.00    +0.076 A 
ATOM      4  C   UNL     1      -2.687   1.966  -0.253  0.00  0.00    +0.284 A 
ATOM      5  O   UNL     1      -3.225   3.096  -0.411  0.00  0.00    -0.265 OA
ATOM      6  N   UNL     1      -1.325   1.858  -0.195  0.00  0.00    -0.151 N 
ATOM      7  C   UNL     1      -0.720   0.623  -0.084  0.00  0.00    +0.065 A 
ATOM      8  C   UNL     1      -1.525  -0.516   0.118  0.00  0.00    +0.028 A 
ENDROOT
BRANCH   7   9
ATOM      9  C   UNL     1       0.796   0.446  -0.169  0.00  0.00    +0.039 C 
ATOM     10  C   UNL     1       1.216  -0.582  -1.260  0.00  0.00    +0.010 C 
ATOM     11  C   UNL     1       2.548  -1.292  -0.947  0.00  0.00    +0.001 C 
ATOM     12  C   UNL     1       3.506  -0.382  -0.171  0.00  0.00    +0.000 C 
ATOM     13  C   UNL     1       2.918   0.040   1.190  0.00  0.00    +0.001 C 
ATOM     14  C   UNL     1       1.376   0.083   1.211  0.00  0.00    +0.010 C 
ENDBRANCH   7   9
BRANCH   6  15
ATOM     15  O   UNL     1      -0.603   3.038  -0.212  0.00  0.00    -0.423 OA
ATOM     16  H   UNL     1       0.329   3.125   0.169  0.00  0.00    +0.326 HD
ENDBRANCH   6  15
TORSDOF 2
