REMARK  Name = 
REMARK  11 active torsions:
REMARK  status: ('A' for Active; 'I' for Inactive)
REMARK    1  A    between atoms: C_13  and  C_14
REMARK    2  A    between atoms: C_16  and  O_17
REMARK    3  A    between atoms: C_19  and  C_20
REMARK    4  A    between atoms: C_21  and  C_31
REMARK    5  A    between atoms: C_23  and  C_25
REMARK    6  A    between atoms: C_31  and  C_33
REMARK    7  A    between atoms: C_33  and  O_34
REMARK    8  A    between atoms: O_34  and  C_35
REMARK    9  A    between atoms: C_35  and  C_37
REMARK   10  A    between atoms: C_37  and  C_38
REMARK   11  A    between atoms: C_37  and  C_39
REMARK                            x       y       z     vdW  Elec       q    Type
REMARK                         _______ _______ _______ _____ _____    ______ ____
ROOT
ATOM      1  C   UNL     1      -0.506   0.737   1.796  0.00  0.00    +0.162 C 
ATOM      2  C   UNL     1       0.995   0.812   2.158  0.00  0.00    +0.039 C 
ATOM      3  C   UNL     1       1.703   0.355   0.892  0.00  0.00    +0.004 C 
ATOM      4  C   UNL     1       3.176  -0.105   0.971  0.00  0.00    -0.000 C 
ATOM      5  C   UNL     1       4.042   1.000   1.613  0.00  0.00    +0.008 C 
ATOM      6  C   UNL     1       5.519   0.617   1.627  0.00  0.00    +0.032 C 
ATOM      7  C   UNL     1       5.970   0.299   0.225  0.00  0.00    -0.056 C 
ATOM      8  C   UNL     1       7.007   0.968  -0.303  0.00  0.00    +0.051 C 
ATOM      9  C   UNL     1       7.426   0.736  -1.685  0.00  0.00    +0.179 C 
ATOM     10  O   UNL     1       8.412   1.356  -2.162  0.00  0.00    -0.288 OA
ATOM     11  C   UNL     1       6.681  -0.205  -2.514  0.00  0.00    +0.047 C 
ATOM     12  C   UNL     1       5.653  -0.888  -2.009  0.00  0.00    -0.012 C 
ATOM     13  C   UNL     1       5.206  -0.790  -0.548  0.00  0.00    +0.013 C 
ATOM     14  C   UNL     1       5.536  -2.150   0.111  0.00  0.00    +0.020 C 
ATOM     15  C   UNL     1       3.671  -0.419  -0.488  0.00  0.00    +0.035 C 
ATOM     16  C   UNL     1       2.707  -1.391  -1.261  0.00  0.00    +0.120 C 
ATOM     17  C   UNL     1       1.216  -0.963  -1.166  0.00  0.00    +0.042 C 
ATOM     18  C   UNL     1       0.763  -0.699   0.294  0.00  0.00    +0.012 C 
ATOM     19  C   UNL     1       0.737  -2.038   1.107  0.00  0.00    +0.015 C 
ATOM     20  C   UNL     1      -0.614   0.018   0.448  0.00  0.00    +0.165 C 
ATOM     21  O   UNL     1      -0.742   1.045  -0.494  0.00  0.00    -0.334 OA
ATOM     22  C   UNL     1      -1.171   2.189   0.213  0.00  0.00    +0.255 C 
ATOM     23  O   UNL     1      -1.025   2.018   1.607  0.00  0.00    -0.344 OA
ENDROOT
BRANCH  22  24
ATOM     24  C   UNL     1      -2.643   2.506  -0.135  0.00  0.00    +0.045 C 
ATOM     25  C   UNL     1      -3.139   3.749   0.634  0.00  0.00    +0.008 C 
ATOM     26  C   UNL     1      -4.593   4.079   0.275  0.00  0.00    +0.000 C 
ATOM     27  C   UNL     1      -4.756   4.279  -1.236  0.00  0.00    +0.000 C 
ATOM     28  C   UNL     1      -4.271   3.046  -2.007  0.00  0.00    +0.000 C 
ATOM     29  C   UNL     1      -2.815   2.717  -1.655  0.00  0.00    +0.008 C 
ENDBRANCH  22  24
BRANCH  16  30
ATOM     30  O   UNL     1       2.858  -2.713  -0.820  0.00  0.00    -0.391 OA
ATOM     31  H   UNL     1       2.476  -3.300  -1.525  0.00  0.00    +0.210 HD
ENDBRANCH  16  30
BRANCH  20  32
ATOM     32  C   UNL     1      -1.814  -0.915   0.274  0.00  0.00    +0.205 C 
ATOM     33  O   UNL     1      -1.933  -1.507  -0.789  0.00  0.00    -0.291 OA
BRANCH  32  34
ATOM     34  C   UNL     1      -2.845  -1.147   1.357  0.00  0.00    +0.309 C 
BRANCH  34  35
ATOM     35  O   UNL     1      -4.034  -1.728   0.823  0.00  0.00    -0.457 OA
BRANCH  35  36
ATOM     36  C   UNL     1      -4.142  -3.077   0.461  0.00  0.00    +0.310 C 
ATOM     37  O   UNL     1      -3.212  -3.888   0.722  0.00  0.00    -0.251 OA
BRANCH  36  38
ATOM     38  C   UNL     1      -5.395  -3.574  -0.206  0.00  0.00    +0.092 C 
ATOM     39  C   UNL     1      -5.933  -2.536  -1.198  0.00  0.00    +0.019 C 
ATOM     40  C   UNL     1      -6.450  -3.916   0.849  0.00  0.00    +0.019 C 
ENDBRANCH  36  38
ENDBRANCH  35  36
ENDBRANCH  34  35
ENDBRANCH  32  34
ENDBRANCH  20  32
TORSDOF 7
