REMARK  Name = 
REMARK  9 active torsions:
REMARK  status: ('A' for Active; 'I' for Inactive)
REMARK    1  A    between atoms: N_6  and  C_7
REMARK    2  A    between atoms: C_7  and  C_8
REMARK    3  A    between atoms: C_8  and  C_9
REMARK    4  A    between atoms: C_8  and  O_11
REMARK    5  A    between atoms: C_9  and  O_10
REMARK    6  A    between atoms: O_11  and  C_12
REMARK    7  A    between atoms: C_12  and  P_13
REMARK    8  A    between atoms: P_13  and  O_14
REMARK    9  A    between atoms: P_13  and  O_15
REMARK                            x       y       z     vdW  Elec       q    Type
REMARK                         _______ _______ _______ _____ _____    ______ ____
ROOT
ATOM      1  C   UNL     1      -0.839  -1.601   0.158  0.00  0.00    +0.164 C 
ENDROOT
BRANCH   1   2
ATOM      2  C   UNL     1       0.207  -1.714  -0.975  0.00  0.00    +0.160 C 
BRANCH   2   8
ATOM      3  N   UNL     1       4.344   2.107  -0.405  0.00  0.00    -0.343 N 
ATOM      4  C   UNL     1       3.295   1.151  -0.561  0.00  0.00    +0.123 A 
ATOM      5  N   UNL     1       3.459  -0.113  -0.097  0.00  0.00    -0.178 NA
ATOM      6  C   UNL     1       2.482  -1.049  -0.226  0.00  0.00    +0.350 A 
ATOM      7  O   UNL     1       2.687  -2.210   0.219  0.00  0.00    -0.244 OA
ATOM      8  N   UNL     1       1.293  -0.727  -0.834  0.00  0.00    -0.296 N 
ATOM      9  C   UNL     1       1.107   0.537  -1.321  0.00  0.00    +0.094 A 
ATOM     10  C   UNL     1       2.103   1.503  -1.191  0.00  0.00    +0.061 A 
ATOM     11  H   UNL     1       4.237   3.085  -0.757  0.00  0.00    +0.144 HD
ATOM     12  H   UNL     1       5.236   1.837   0.066  0.00  0.00    +0.144 HD
ENDBRANCH   2   8
ENDBRANCH   1   2
BRANCH   1  13
ATOM     13  C   UNL     1      -0.247  -2.018   1.511  0.00  0.00    +0.189 C 
BRANCH  13  14
ATOM     14  O   UNL     1      -1.242  -2.010   2.500  0.00  0.00    -0.392 OA
ATOM     15  H   UNL     1      -1.786  -2.829   2.363  0.00  0.00    +0.210 HD
ENDBRANCH  13  14
ENDBRANCH   1  13
BRANCH   1  16
ATOM     16  O   UNL     1      -1.313  -0.268   0.264  0.00  0.00    -0.360 OA
BRANCH  16  17
ATOM     17  C   UNL     1      -2.504  -0.098  -0.472  0.00  0.00    +0.286 C 
BRANCH  17  18
ATOM     18  P   UNL     1      -3.007   1.643  -0.376  0.00  0.00    +0.353 P 
ATOM     19  O   UNL     1      -4.291   1.839  -1.151  0.00  0.00    -0.256 OA
BRANCH  18  20
ATOM     20  O   UNL     1      -1.794   2.616  -1.040  0.00  0.00    -0.323 OA
ATOM     21  H   UNL     1      -2.094   3.545  -0.870  0.00  0.00    +0.220 HD
ENDBRANCH  18  20
BRANCH  18  22
ATOM     22  O   UNL     1      -3.251   2.073   1.242  0.00  0.00    -0.323 OA
ATOM     23  H   UNL     1      -3.945   1.447   1.570  0.00  0.00    +0.220 HD
ENDBRANCH  18  22
ENDBRANCH  17  18
ENDBRANCH  16  17
ENDBRANCH   1  16
TORSDOF 9
