REMARK  Name = 
REMARK  16 active torsions:
REMARK  status: ('A' for Active; 'I' for Inactive)
REMARK    1  A    between atoms: N_1  and  CA_2
REMARK    2  A    between atoms: CA_2  and  CB_3
REMARK    3  A    between atoms: CA_2  and  C_22
REMARK    4  A    between atoms: CB_3  and  SG_4
REMARK    5  A    between atoms: SG_4  and  C_5
REMARK    6  A    between atoms: C_5  and  C_6
REMARK    7  A    between atoms: C_6  and  C_7
REMARK    8  A    between atoms: C_7  and  C_8
REMARK    9  A    between atoms: C_8  and  C_9
REMARK   10  A    between atoms: CA_10  and  N_11
REMARK   11  A    between atoms: CA_10  and  C_19
REMARK   12  A    between atoms: C_12  and  C_14
REMARK   13  A    between atoms: C_16  and  C_17
REMARK   14  A    between atoms: C_16  and  C_18
REMARK   15  A    between atoms: C_19  and  OXT_21
REMARK   16  A    between atoms: C_22  and  OXT_24
REMARK                            x       y       z     vdW  Elec       q    Type
REMARK                         _______ _______ _______ _____ _____    ______ ____
ROOT
ATOM      1  C   UNL     1      -0.616   0.799  -1.938  0.00  0.00    +0.003 C 
ATOM      2  CA  UNL     1      -1.799   1.145  -1.397  0.00  0.00    +0.114 C 
ENDROOT
BRANCH   2   3
ATOM      3  N   UNL     1      -2.390   0.347  -0.355  0.00  0.00    -0.280 N 
ATOM      4  C   UNL     1      -3.775  -0.030  -0.351  0.00  0.00    +0.221 C 
ATOM      5  O   UNL     1      -4.501   0.189  -1.357  0.00  0.00    -0.275 OA
ATOM      6  H   UNL     1      -1.779  -0.046   0.394  0.00  0.00    +0.155 HD
BRANCH   4   7
ATOM      7  C   UNL     1      -4.347  -0.785   0.814  0.00  0.00    +0.081 C 
ATOM      8  C   UNL     1      -4.086  -0.143   2.181  0.00  0.00    +0.020 C 
ATOM      9  C   UNL     1      -5.492  -0.127   1.592  0.00  0.00    -0.023 C 
ATOM     10  C   UNL     1      -6.493  -1.082   2.248  0.00  0.00    +0.011 C 
ATOM     11  C   UNL     1      -6.010   1.255   1.165  0.00  0.00    +0.011 C 
ENDBRANCH   4   7
ENDBRANCH   2   3
BRANCH   2  12
ATOM     12  C   UNL     1      -2.477   2.382  -1.852  0.00  0.00    +0.351 C 
ATOM     13  O   UNL     1      -3.436   2.857  -1.186  0.00  0.00    -0.244 OA
BRANCH  12  14
ATOM     14  OXT UNL     1      -2.053   3.042  -3.003  0.00  0.00    -0.476 OA
ATOM     15  HXT UNL     1      -2.512   3.889  -3.316  0.00  0.00    +0.295 HD
ENDBRANCH  12  14
ENDBRANCH   2  12
BRANCH   1  16
ATOM     16  C   UNL     1       0.170  -0.422  -1.536  0.00  0.00    +0.029 C 
BRANCH  16  17
ATOM     17  C   UNL     1       1.122  -0.140  -0.360  0.00  0.00    +0.005 C 
BRANCH  17  18
ATOM     18  C   UNL     1       2.167   0.961  -0.634  0.00  0.00    +0.011 C 
BRANCH  18  19
ATOM     19  C   UNL     1       3.139   0.648  -1.783  0.00  0.00    +0.069 C 
BRANCH  19  20
ATOM     20  SG  UNL     1       4.079  -0.900  -1.506  0.00  0.00    -0.159 S 
BRANCH  20  21
ATOM     21  CB  UNL     1       5.395  -0.153  -0.478  0.00  0.00    +0.099 C 
BRANCH  21  22
ATOM     22  CA  UNL     1       6.376  -1.231  -0.001  0.00  0.00    +0.170 C 
BRANCH  22  23
ATOM     23  N   UNL     1       5.694  -2.199   0.861  0.00  0.00    -0.318 NA
ATOM     24  H1  UNL     1       6.376  -2.945   1.132  0.00  0.00    +0.119 HD
ATOM     25  H2  UNL     1       5.379  -1.728   1.741  0.00  0.00    +0.119 HD
ENDBRANCH  22  23
BRANCH  22  26
ATOM     26  C   UNL     1       7.536  -0.598   0.723  0.00  0.00    +0.323 C 
ATOM     27  O   UNL     1       8.701  -0.693   0.252  0.00  0.00    -0.249 OA
BRANCH  26  28
ATOM     28  OXT UNL     1       7.322   0.101   1.908  0.00  0.00    -0.480 OA
ATOM     29  HXT UNL     1       8.093   0.535   2.401  0.00  0.00    +0.295 HD
ENDBRANCH  26  28
ENDBRANCH  22  26
ENDBRANCH  21  22
ENDBRANCH  20  21
ENDBRANCH  19  20
ENDBRANCH  18  19
ENDBRANCH  17  18
ENDBRANCH  16  17
ENDBRANCH   1  16
TORSDOF 14
