REMARK  Name = 
REMARK  11 active torsions:
REMARK  status: ('A' for Active; 'I' for Inactive)
REMARK    1  A    between atoms: C_1  and  C_2
REMARK    2  A    between atoms: C_2  and  O_3
REMARK    3  A    between atoms: O_3  and  C_4
REMARK    4  A    between atoms: C_4  and  C_6
REMARK    5  A    between atoms: C_6  and  C_7
REMARK    6  A    between atoms: C_6  and  N_15
REMARK    7  A    between atoms: C_7  and  C_8
REMARK    8  A    between atoms: C_8  and  C_9
REMARK    9  A    between atoms: N_15  and  C_16
REMARK   10  A    between atoms: C_24  and  C_28
REMARK   11  A    between atoms: C_28  and  O_29
REMARK                            x       y       z     vdW  Elec       q    Type
REMARK                         _______ _______ _______ _____ _____    ______ ____
ROOT
ATOM      1  N   UNL     1      -0.114   0.211   0.123  0.00  0.00    -0.293 NA
ATOM      2  H   UNL     1      -0.121   0.194  -0.925  0.00  0.00    +0.123 HD
ENDROOT
BRANCH   1   3
ATOM      3  C   UNL     1       1.231   0.592   0.624  0.00  0.00    +0.143 C 
ATOM      4  C   UNL     1       1.791  -0.506   1.534  0.00  0.00    +0.029 C 
ATOM      5  C   UNL     1       1.741  -1.903   0.903  0.00  0.00    +0.019 C 
ATOM      6  C   UNL     1       2.255  -1.952  -0.546  0.00  0.00    +0.106 C 
ATOM      7  N   UNL     1       3.505  -1.204  -0.774  0.00  0.00    -0.224 NA
ATOM      8  C   UNL     1       4.660  -1.623   0.052  0.00  0.00    +0.106 C 
ATOM      9  C   UNL     1       5.861  -0.667  -0.091  0.00  0.00    +0.019 C 
ATOM     10  C   UNL     1       5.793   0.118  -1.400  0.00  0.00    +0.037 C 
ATOM     11  C   UNL     1       4.501   0.956  -1.443  0.00  0.00    +0.202 C 
ATOM     12  N   UNL     1       3.374   0.212  -0.848  0.00  0.00    -0.219 N 
ATOM     13  C   UNL     1       2.169   0.956  -0.512  0.00  0.00    +0.247 C 
ATOM     14  O   UNL     1       1.901   2.006  -1.157  0.00  0.00    -0.273 OA
BRANCH  11  15
ATOM     15  C   UNL     1       4.194   1.347  -2.865  0.00  0.00    +0.327 C 
ATOM     16  O   UNL     1       4.404   2.528  -3.249  0.00  0.00    -0.249 OA
BRANCH  15  17
ATOM     17  O   UNL     1       3.714   0.411  -3.778  0.00  0.00    -0.479 OA
ATOM     18  H   UNL     1       3.544  -0.550  -3.509  0.00  0.00    +0.295 HD
ENDBRANCH  15  17
ENDBRANCH  11  15
ENDBRANCH   1   3
BRANCH   1  19
ATOM     19  C   UNL     1      -1.181   1.122   0.587  0.00  0.00    +0.164 C 
BRANCH  19  20
ATOM     20  C   UNL     1      -1.461   0.919   2.052  0.00  0.00    +0.324 C 
ATOM     21  O   UNL     1      -1.412  -0.239   2.553  0.00  0.00    -0.249 OA
BRANCH  20  22
ATOM     22  O   UNL     1      -1.818   2.020   2.838  0.00  0.00    -0.464 OA
BRANCH  22  24
ATOM     23  C   UNL     1      -3.647   1.358   4.289  0.00  0.00    +0.048 C 
ATOM     24  C   UNL     1      -2.227   1.908   4.199  0.00  0.00    +0.229 C 
ENDBRANCH  22  24
ENDBRANCH  20  22
ENDBRANCH  19  20
BRANCH  19  25
ATOM     25  C   UNL     1      -2.474   0.939  -0.238  0.00  0.00    +0.035 C 
BRANCH  25  26
ATOM     26  C   UNL     1      -3.026  -0.497  -0.214  0.00  0.00    +0.037 C 
BRANCH  26  27
ATOM     27  C   UNL     1      -4.231  -0.608  -1.110  0.00  0.00    -0.047 A 
ATOM     28  C   UNL     1      -4.086  -1.010  -2.448  0.00  0.00    +0.003 A 
ATOM     29  C   UNL     1      -5.201  -1.070  -3.290  0.00  0.00    +0.000 A 
ATOM     30  C   UNL     1      -6.464  -0.721  -2.806  0.00  0.00    +0.000 A 
ATOM     31  C   UNL     1      -6.614  -0.309  -1.479  0.00  0.00    +0.000 A 
ATOM     32  C   UNL     1      -5.503  -0.247  -0.633  0.00  0.00    +0.003 A 
ENDBRANCH  26  27
ENDBRANCH  25  26
ENDBRANCH  19  25
ENDBRANCH   1  19
TORSDOF 10
