REMARK  Name = 
REMARK  7 active torsions:
REMARK  status: ('A' for Active; 'I' for Inactive)
REMARK    1  A    between atoms: C_10  and  O_11
REMARK    2  A    between atoms: O_11  and  C_12
REMARK    3  A    between atoms: C_12  and  C_13
REMARK    4  A    between atoms: C_13  and  C_14
REMARK    5  A    between atoms: C_14  and  C_15
REMARK    6  A    between atoms: C_15  and  C_16
REMARK    7  A    between atoms: N_20  and  C_21
REMARK                            x       y       z     vdW  Elec       q    Type
REMARK                         _______ _______ _______ _____ _____    ______ ____
ROOT
ATOM      1  C   UNL     1       1.452  -1.722   0.927  0.00  0.00    +0.229 C 
ENDROOT
BRANCH   1   2
ATOM      2  O   UNL     1       2.264  -0.715   0.326  0.00  0.00    -0.492 OA
BRANCH   2  12
ATOM      3  O   UNL     1       9.849   0.631  -0.191  0.00  0.00    -0.275 OA
ATOM      4  C   UNL     1       8.597   0.516  -0.279  0.00  0.00    +0.218 C 
ATOM      5  C   UNL     1       7.839   1.298  -1.311  0.00  0.00    +0.101 C 
ATOM      6  C   UNL     1       6.437   1.659  -0.802  0.00  0.00    +0.046 C 
ATOM      7  C   UNL     1       5.731   0.468  -0.198  0.00  0.00    -0.022 A 
ATOM      8  C   UNL     1       6.471  -0.504   0.505  0.00  0.00    +0.037 A 
ATOM      9  N   UNL     1       7.902  -0.416   0.554  0.00  0.00    -0.285 N 
ATOM     10  C   UNL     1       5.806  -1.558   1.143  0.00  0.00    +0.027 A 
ATOM     11  C   UNL     1       4.412  -1.648   1.088  0.00  0.00    +0.047 A 
ATOM     12  C   UNL     1       3.664  -0.674   0.400  0.00  0.00    +0.121 A 
ATOM     13  C   UNL     1       4.331   0.382  -0.232  0.00  0.00    +0.051 A 
ATOM     14  H   UNL     1       8.447  -1.050   1.182  0.00  0.00    +0.155 HD
ENDBRANCH   2  12
ENDBRANCH   1   2
BRANCH   1  15
ATOM     15  C   UNL     1      -0.023  -1.438   0.644  0.00  0.00    +0.041 C 
BRANCH  15  16
ATOM     16  C   UNL     1      -0.487  -0.135   1.315  0.00  0.00    +0.011 C 
BRANCH  16  17
ATOM     17  C   UNL     1      -1.974   0.149   1.057  0.00  0.00    +0.078 C 
BRANCH  17  18
ATOM     18  C   UNL     1      -2.266   0.474  -0.386  0.00  0.00    +0.152 A 
ATOM     19  N   UNL     1      -1.400   1.096  -1.210  0.00  0.00    -0.113 NA
ATOM     20  N   UNL     1      -2.079   1.321  -2.326  0.00  0.00    -0.023 NA
ATOM     21  N   UNL     1      -3.320   0.880  -2.197  0.00  0.00    -0.044 NA
ATOM     22  N   UNL     1      -3.461   0.338  -0.998  0.00  0.00    -0.226 N 
BRANCH  22  23
ATOM     23  C   UNL     1      -4.736  -0.120  -0.432  0.00  0.00    +0.111 C 
ATOM     24  C   UNL     1      -5.473   1.063   0.220  0.00  0.00    +0.027 C 
ATOM     25  C   UNL     1      -6.827   0.624   0.792  0.00  0.00    +0.002 C 
ATOM     26  C   UNL     1      -7.695  -0.033  -0.288  0.00  0.00    +0.000 C 
ATOM     27  C   UNL     1      -6.964  -1.216  -0.938  0.00  0.00    +0.002 C 
ATOM     28  C   UNL     1      -5.614  -0.774  -1.518  0.00  0.00    +0.027 C 
ENDBRANCH  22  23
ENDBRANCH  17  18
ENDBRANCH  16  17
ENDBRANCH  15  16
ENDBRANCH   1  15
TORSDOF 7
