REMARK  Name = 
REMARK  8 active torsions:
REMARK  status: ('A' for Active; 'I' for Inactive)
REMARK    1  A    between atoms: C_1  and  N_2
REMARK    2  A    between atoms: N_4  and  C_5
REMARK    3  A    between atoms: C_5  and  C_6
REMARK    4  A    between atoms: C_6  and  S_7
REMARK    5  A    between atoms: S_7  and  C_8
REMARK    6  A    between atoms: C_8  and  C_9
REMARK    7  A    between atoms: C_10  and  C_11
REMARK    8  A    between atoms: N_15  and  C_16
REMARK                            x       y       z     vdW  Elec       q    Type
REMARK                         _______ _______ _______ _____ _____    ______ ____
ROOT
ATOM      1  C   UNL     1      -1.095  -1.201  -0.974  0.00  0.00    +0.126 C 
ENDROOT
BRANCH   1   5
ATOM      2  C   UNL     1      -4.264  -0.203   1.794  0.00  0.00    +0.174 C 
ATOM      3  N   UNL     1      -3.286  -0.477   0.749  0.00  0.00    -0.255 NA
ATOM      4  C   UNL     1      -3.212   0.106  -0.416  0.00  0.00    +0.206 C 
ATOM      5  N   UNL     1      -2.136  -0.228  -1.306  0.00  0.00    -0.355 N 
ATOM      6  N   UNL     1      -4.137   1.132  -0.814  0.00  0.00    -0.263 N 
ATOM      7  H   UNL     1      -2.124   0.201  -2.258  0.00  0.00    +0.163 HD
ATOM      8  H   UNL     1      -3.808   1.853  -1.493  0.00  0.00    +0.181 HD
BRANCH   6   9
ATOM      9  C   UNL     1      -5.525   0.985  -0.674  0.00  0.00    +0.184 C 
ATOM     10  N   UNL     1      -6.670   0.865  -0.560  0.00  0.00    -0.171 NA
ENDBRANCH   6   9
ENDBRANCH   1   5
BRANCH   1  11
ATOM     11  C   UNL     1      -0.089  -0.597   0.002  0.00  0.00    +0.090 C 
BRANCH  11  12
ATOM     12  S   UNL     1       1.230  -1.809   0.357  0.00  0.00    -0.153 S 
BRANCH  12  13
ATOM     13  C   UNL     1       2.116  -0.773   1.575  0.00  0.00    +0.126 C 
BRANCH  13  14
ATOM     14  C   UNL     1       2.849   0.342   0.894  0.00  0.00    +0.072 A 
ATOM     15  C   UNL     1       3.976   0.234   0.104  0.00  0.00    +0.036 A 
ATOM     16  C   UNL     1       4.701  -1.020  -0.272  0.00  0.00    +0.065 C 
ATOM     17  N   UNL     1       4.281   1.454  -0.363  0.00  0.00    -0.348 N 
ATOM     18  C   UNL     1       3.350   2.276   0.158  0.00  0.00    +0.197 A 
ATOM     19  N   UNL     1       2.451   1.630   0.932  0.00  0.00    -0.240 NA
ATOM     20  H   UNL     1       5.064   1.715  -1.004  0.00  0.00    +0.166 HD
ENDBRANCH  13  14
ENDBRANCH  12  13
ENDBRANCH  11  12
ENDBRANCH   1  11
TORSDOF 6
