REMARK  Name = 
REMARK  12 active torsions:
REMARK  status: ('A' for Active; 'I' for Inactive)
REMARK    1  A    between atoms: C_1  and  C_2
REMARK    2  A    between atoms: C_2  and  C_3
REMARK    3  A    between atoms: C_3  and  C_4
REMARK    4  A    between atoms: C_3  and  C_6
REMARK    5  A    between atoms: C_3  and  C_27
REMARK    6  A    between atoms: C_4  and  C_5
REMARK    7  A    between atoms: C_6  and  C_7
REMARK    8  A    between atoms: N_9  and  C_10
REMARK    9  A    between atoms: C_14  and  C_15
REMARK   10  A    between atoms: C_16  and  C_17
REMARK   11  A    between atoms: C_19  and  C_22
REMARK   12  A    between atoms: C_27  and  O_28
REMARK                            x       y       z     vdW  Elec       q    Type
REMARK                         _______ _______ _______ _____ _____    ______ ____
ROOT
ATOM      1  C   UNL     1      -1.155  -1.433   1.315  0.00  0.00    +0.034 A 
ATOM      2  C   UNL     1      -1.090  -1.984   2.601  0.00  0.00    +0.023 A 
ATOM      3  C   UNL     1       0.137  -2.109   3.255  0.00  0.00    +0.002 A 
ATOM      4  C   UNL     1       1.314  -1.705   2.621  0.00  0.00    +0.008 A 
ATOM      5  C   UNL     1       1.281  -1.189   1.316  0.00  0.00    -0.023 A 
ATOM      6  C   UNL     1       0.035  -1.049   0.669  0.00  0.00    +0.031 A 
ENDROOT
BRANCH   1   9
ATOM      7  C   UNL     1      -2.806  -0.222  -0.184  0.00  0.00    +0.218 C 
ATOM      8  O   UNL     1      -2.067   0.796  -0.263  0.00  0.00    -0.275 OA
ATOM      9  N   UNL     1      -2.430  -1.323   0.661  0.00  0.00    -0.285 N 
ATOM     10  H   UNL     1      -3.158  -2.036   0.895  0.00  0.00    +0.155 HD
BRANCH   7  11
ATOM     11  C   UNL     1      -4.077  -0.299  -1.000  0.00  0.00    +0.114 C 
BRANCH  11  12
ATOM     12  C   UNL     1      -4.985   0.974  -0.918  0.00  0.00    +0.075 C 
BRANCH  12  14
ATOM     13  C   UNL     1      -7.281  -0.239  -1.383  0.00  0.00    +0.005 C 
ATOM     14  C   UNL     1      -6.246   0.797  -1.827  0.00  0.00    +0.015 C 
ENDBRANCH  12  14
BRANCH  12  15
ATOM     15  C   UNL     1      -5.382   1.330   0.561  0.00  0.00    +0.015 C 
ATOM     16  C   UNL     1      -5.655   0.153   1.511  0.00  0.00    +0.005 C 
ENDBRANCH  12  15
BRANCH  12  17
ATOM     17  C   UNL     1      -4.239   2.159  -1.528  0.00  0.00    +0.311 C 
ATOM     18  O   UNL     1      -4.440   3.331  -1.107  0.00  0.00    -0.250 OA
BRANCH  17  19
ATOM     19  O   UNL     1      -3.406   1.970  -2.629  0.00  0.00    -0.480 OA
ATOM     20  H   UNL     1      -2.932   2.753  -3.063  0.00  0.00    +0.295 HD
ENDBRANCH  17  19
ENDBRANCH  12  17
ENDBRANCH  11  12
ENDBRANCH   7  11
ENDBRANCH   1   9
BRANCH   5  21
ATOM     21  C   UNL     1       2.561  -0.786   0.682  0.00  0.00    +0.010 C 
ATOM     22  C   UNL     1       2.734  -0.669  -0.642  0.00  0.00    +0.035 C 
BRANCH  22  23
ATOM     23  C   UNL     1       4.027  -0.280  -1.225  0.00  0.00    +0.101 A 
ATOM     24  N   UNL     1       5.138  -0.001  -0.507  0.00  0.00    -0.244 NA
ATOM     25  C   UNL     1       6.191   0.333  -1.305  0.00  0.00    +0.052 A 
ATOM     26  C   UNL     1       5.922   0.318  -2.671  0.00  0.00    +0.070 A 
ATOM     27  S   UNL     1       4.312  -0.125  -2.874  0.00  0.00    -0.076 S 
BRANCH  25  28
ATOM     28  C   UNL     1       7.548   0.680  -0.749  0.00  0.00    +0.038 C 
ATOM     29  C   UNL     1       8.099  -0.369   0.215  0.00  0.00    +0.010 C 
ATOM     30  C   UNL     1       8.053   0.649   1.347  0.00  0.00    +0.001 C 
ATOM     31  C   UNL     1       7.505   1.699   0.389  0.00  0.00    +0.010 C 
ENDBRANCH  25  28
ENDBRANCH  22  23
ENDBRANCH   5  21
TORSDOF 10
