REMARK  Name = 
REMARK  8 active torsions:
REMARK  status: ('A' for Active; 'I' for Inactive)
REMARK    1  A    between atoms: C_1  and  C_2
REMARK    2  A    between atoms: C_2  and  N_3
REMARK    3  A    between atoms: C_2  and  C_17
REMARK    4  A    between atoms: N_3  and  C_4
REMARK    5  A    between atoms: C_4  and  C_5
REMARK    6  A    between atoms: C_5  and  C_6
REMARK    7  A    between atoms: C_6  and  C_7
REMARK    8  A    between atoms: C_9  and  C_13
REMARK                            x       y       z     vdW  Elec       q    Type
REMARK                         _______ _______ _______ _____ _____    ______ ____
ROOT
ATOM      1  N   UNL     1      -1.026   0.988   0.157  0.00  0.00    -0.310 NA
ATOM      2  H   UNL     1      -0.724   0.836   1.148  0.00  0.00    +0.122 HD
ENDROOT
BRANCH   1   4
ATOM      3  C   UNL     1      -2.061  -0.164  -1.828  0.00  0.00    +0.029 C 
ATOM      4  C   UNL     1      -1.566  -0.281  -0.375  0.00  0.00    +0.081 C 
BRANCH   4   5
ATOM      5  C   UNL     1      -2.690  -0.797   0.523  0.00  0.00    -0.023 A 
ATOM      6  C   UNL     1      -2.603  -2.133   0.965  0.00  0.00    +0.006 A 
ATOM      7  C   UNL     1      -3.587  -2.693   1.775  0.00  0.00    +0.001 A 
ATOM      8  C   UNL     1      -4.690  -1.940   2.162  0.00  0.00    +0.008 A 
ATOM      9  C   UNL     1      -4.823  -0.613   1.738  0.00  0.00    -0.018 A 
ATOM     10  C   UNL     1      -5.948   0.129   2.134  0.00  0.00    +0.008 A 
ATOM     11  C   UNL     1      -6.102   1.450   1.719  0.00  0.00    +0.001 A 
ATOM     12  C   UNL     1      -5.139   2.043   0.907  0.00  0.00    +0.001 A 
ATOM     13  C   UNL     1      -4.013   1.321   0.504  0.00  0.00    +0.009 A 
ATOM     14  C   UNL     1      -3.827  -0.021   0.909  0.00  0.00    -0.013 A 
ENDBRANCH   4   5
ENDBRANCH   1   4
BRANCH   1  15
ATOM     15  C   UNL     1       0.111   1.549  -0.594  0.00  0.00    +0.082 C 
BRANCH  15  16
ATOM     16  C   UNL     1       1.373   0.670  -0.521  0.00  0.00    +0.020 C 
BRANCH  16  17
ATOM     17  C   UNL     1       2.592   1.411  -1.082  0.00  0.00    +0.036 C 
BRANCH  17  18
ATOM     18  C   UNL     1       3.813   0.532  -1.033  0.00  0.00    -0.047 A 
ATOM     19  C   UNL     1       4.617   0.501   0.119  0.00  0.00    +0.016 A 
ATOM     20  C   UNL     1       5.747  -0.335   0.182  0.00  0.00    +0.055 A 
ATOM     21  C   UNL     1       6.031  -1.182  -0.903  0.00  0.00    +0.012 A 
ATOM     22  C   UNL     1       5.225  -1.163  -2.045  0.00  0.00    +0.001 A 
ATOM     23  C   UNL     1       4.121  -0.311  -2.111  0.00  0.00    +0.003 A 
BRANCH  20  24
ATOM     24  C   UNL     1       6.580  -0.396   1.438  0.00  0.00    +0.417 C 
ATOM     25  F   UNL     1       6.601   0.836   2.070  0.00  0.00    -0.166 F 
ATOM     26  F   UNL     1       6.039  -1.334   2.297  0.00  0.00    -0.166 F 
ATOM     27  F   UNL     1       7.884  -0.753   1.143  0.00  0.00    -0.166 F 
ENDBRANCH  20  24
ENDBRANCH  17  18
ENDBRANCH  16  17
ENDBRANCH  15  16
ENDBRANCH   1  15
TORSDOF 7
