REMARK  Name = 
REMARK  9 active torsions:
REMARK  status: ('A' for Active; 'I' for Inactive)
REMARK    1  A    between atoms: C_1  and  C_2
REMARK    2  A    between atoms: C_2  and  O_3
REMARK    3  A    between atoms: O_3  and  C_4
REMARK    4  A    between atoms: C_6  and  N_7
REMARK    5  A    between atoms: C_8  and  N_27
REMARK    6  A    between atoms: C_10  and  C_11
REMARK    7  A    between atoms: N_13  and  C_14
REMARK    8  A    between atoms: N_17  and  C_18
REMARK    9  A    between atoms: C_18  and  C_19
REMARK                            x       y       z     vdW  Elec       q    Type
REMARK                         _______ _______ _______ _____ _____    ______ ____
ROOT
ATOM      1  C   UNL     1      -2.351   1.426   1.545  0.00  0.00    +0.248 C 
ATOM      2  O   UNL     1      -2.177   2.279   2.458  0.00  0.00    -0.270 OA
ATOM      3  N   UNL     1      -1.570   1.497   0.342  0.00  0.00    -0.308 N 
ATOM      4  H   UNL     1      -1.936   1.006  -0.505  0.00  0.00    +0.149 HD
ENDROOT
BRANCH   1  10
ATOM      5  C   UNL     1      -3.203  -0.923   1.216  0.00  0.00    +0.134 A 
ATOM      6  C   UNL     1      -4.235  -1.869   1.363  0.00  0.00    +0.071 A 
ATOM      7  C   UNL     1      -5.433  -1.539   2.013  0.00  0.00    +0.059 A 
ATOM      8  C   UNL     1      -5.596  -0.248   2.560  0.00  0.00    +0.148 A 
ATOM      9  C   UNL     1      -4.577   0.702   2.391  0.00  0.00    +0.051 A 
ATOM     10  C   UNL     1      -3.391   0.383   1.711  0.00  0.00    +0.081 A 
BRANCH   7  11
ATOM     11  N   UNL     1      -6.485  -2.511   2.062  0.00  0.00    -0.356 N 
ATOM     12  H   UNL     1      -7.464  -2.251   2.310  0.00  0.00    +0.142 HD
ATOM     13  H   UNL     1      -6.317  -3.490   1.739  0.00  0.00    +0.142 HD
ENDBRANCH   7  11
BRANCH   8  14
ATOM     14  N   UNL     1      -6.770   0.104   3.310  0.00  0.00    +0.058 N 
ATOM     15  O   UNL     1      -7.276  -0.765   4.249  0.00  0.00    -0.126 OA
ATOM     16  O   UNL     1      -7.215   1.270   3.267  0.00  0.00    -0.126 OA
ENDBRANCH   8  14
BRANCH   5  17
ATOM     17  O   UNL     1      -1.975  -1.253   0.614  0.00  0.00    -0.491 OA
BRANCH  17  19
ATOM     18  C   UNL     1      -2.363  -2.437  -1.471  0.00  0.00    +0.048 C 
ATOM     19  C   UNL     1      -1.685  -2.451  -0.106  0.00  0.00    +0.226 C 
ENDBRANCH  17  19
ENDBRANCH   5  17
ENDBRANCH   1  10
BRANCH   3  20
ATOM     20  C   UNL     1      -0.366   2.332   0.231  0.00  0.00    +0.076 C 
ATOM     21  C   UNL     1       0.114   2.422  -1.227  0.00  0.00    +0.037 C 
ATOM     22  C   UNL     1       0.693   1.084  -1.714  0.00  0.00    +0.086 C 
ATOM     23  N   UNL     1       1.787   0.601  -0.848  0.00  0.00    -0.302 NA
ATOM     24  C   UNL     1       1.365   0.487   0.566  0.00  0.00    +0.086 C 
ATOM     25  C   UNL     1       0.764   1.791   1.123  0.00  0.00    +0.037 C 
BRANCH  23  26
ATOM     26  C   UNL     1       3.054   1.346  -1.031  0.00  0.00    +0.088 C 
BRANCH  26  27
ATOM     27  C   UNL     1       4.259   0.388  -0.949  0.00  0.00    +0.007 C 
ATOM     28  C   UNL     1       4.237  -0.639  -2.096  0.00  0.00    +0.009 C 
ATOM     29  C   UNL     1       5.394  -1.634  -1.945  0.00  0.00    +0.027 C 
ATOM     30  C   UNL     1       6.709  -0.955  -1.652  0.00  0.00    -0.031 C 
ATOM     31  C   UNL     1       6.785   0.283  -1.136  0.00  0.00    -0.031 C 
ATOM     32  C   UNL     1       5.580   1.180  -0.995  0.00  0.00    +0.031 C 
ENDBRANCH  26  27
ENDBRANCH  23  26
ENDBRANCH   3  20
TORSDOF 8
