REMARK  Name = 
REMARK  6 active torsions:
REMARK  status: ('A' for Active; 'I' for Inactive)
REMARK    1  A    between atoms: C_1  and  C_2
REMARK    2  A    between atoms: C_1  and  N_10
REMARK    3  A    between atoms: C_3  and  C_4
REMARK    4  A    between atoms: N_13  and  C_16
REMARK    5  A    between atoms: C_16  and  C_17
REMARK    6  A    between atoms: C_16  and  C_23
REMARK                            x       y       z     vdW  Elec       q    Type
REMARK                         _______ _______ _______ _____ _____    ______ ____
ROOT
ATOM      1  N   UNL     1       1.482  -1.025   0.151  0.00  0.00    -0.296 NA
ATOM      2  C   UNL     1       0.971   0.207   0.801  0.00  0.00    +0.100 C 
ATOM      3  C   UNL     1      -0.391   0.618   0.230  0.00  0.00    +0.100 C 
ATOM      4  N   UNL     1      -1.435  -0.405   0.507  0.00  0.00    -0.289 NA
ATOM      5  C   UNL     1      -0.876  -1.786   0.551  0.00  0.00    +0.100 C 
ATOM      6  C   UNL     1       0.400  -1.937  -0.295  0.00  0.00    +0.100 C 
ENDROOT
BRANCH   1   7
ATOM      7  C   UNL     1       2.460  -1.724   1.012  0.00  0.00    +0.111 C 
BRANCH   7   8
ATOM      8  C   UNL     1       3.681  -0.880   1.248  0.00  0.00    -0.011 C 
ATOM      9  C   UNL     1       4.468  -0.504   0.231  0.00  0.00    +0.005 C 
BRANCH   9  10
ATOM     10  C   UNL     1       5.674   0.346   0.386  0.00  0.00    -0.025 A 
ATOM     11  C   UNL     1       6.346   0.497   1.617  0.00  0.00    +0.008 A 
ATOM     12  C   UNL     1       7.485   1.304   1.706  0.00  0.00    +0.001 A 
ATOM     13  C   UNL     1       7.970   1.962   0.574  0.00  0.00    +0.000 A 
ATOM     14  C   UNL     1       7.321   1.809  -0.653  0.00  0.00    +0.001 A 
ATOM     15  C   UNL     1       6.182   1.002  -0.749  0.00  0.00    +0.008 A 
ENDBRANCH   9  10
ENDBRANCH   7   8
ENDBRANCH   1   7
BRANCH   4  16
ATOM     16  C   UNL     1      -2.584  -0.294  -0.438  0.00  0.00    +0.117 C 
BRANCH  16  17
ATOM     17  C   UNL     1      -3.109   1.131  -0.545  0.00  0.00    -0.026 A 
ATOM     18  C   UNL     1      -3.302   1.716  -1.810  0.00  0.00    +0.005 A 
ATOM     19  C   UNL     1      -3.806   3.016  -1.919  0.00  0.00    +0.000 A 
ATOM     20  C   UNL     1      -4.128   3.741  -0.769  0.00  0.00    +0.000 A 
ATOM     21  C   UNL     1      -3.950   3.167   0.492  0.00  0.00    +0.000 A 
ATOM     22  C   UNL     1      -3.448   1.868   0.606  0.00  0.00    +0.005 A 
ENDBRANCH  16  17
BRANCH  16  23
ATOM     23  C   UNL     1      -3.749  -1.183  -0.028  0.00  0.00    -0.026 A 
ATOM     24  C   UNL     1      -4.079  -1.381   1.327  0.00  0.00    +0.005 A 
ATOM     25  C   UNL     1      -5.176  -2.172   1.678  0.00  0.00    +0.000 A 
ATOM     26  C   UNL     1      -5.961  -2.764   0.686  0.00  0.00    +0.000 A 
ATOM     27  C   UNL     1      -5.652  -2.562  -0.661  0.00  0.00    +0.000 A 
ATOM     28  C   UNL     1      -4.556  -1.771  -1.019  0.00  0.00    +0.005 A 
ENDBRANCH  16  23
ENDBRANCH   4  16
TORSDOF 6
