REMARK  Name = 
REMARK  4 active torsions:
REMARK  status: ('A' for Active; 'I' for Inactive)
REMARK    1  A    between atoms: C_1  and  C_2
REMARK    2  A    between atoms: C_2  and  N_3
REMARK    3  A    between atoms: C_5  and  C_6
REMARK    4  A    between atoms: C_6  and  O_7
REMARK                            x       y       z     vdW  Elec       q    Type
REMARK                         _______ _______ _______ _____ _____    ______ ____
ROOT
ATOM      1  N   UNL     1      -1.024  -0.996  -0.484  0.00  0.00    -0.263 N 
ATOM      2  N   UNL     1      -2.199  -0.378  -0.632  0.00  0.00    -0.160 NA
ATOM      3  C   UNL     1      -2.347   0.972  -0.595  0.00  0.00    +0.215 A 
ATOM      4  C   UNL     1      -1.217   1.775  -0.386  0.00  0.00    +0.222 A 
ATOM      5  O   UNL     1      -1.321   3.032  -0.350  0.00  0.00    -0.285 OA
ATOM      6  C   UNL     1       0.034   1.163  -0.214  0.00  0.00    +0.053 A 
ATOM      7  C   UNL     1       1.197   1.941   0.008  0.00  0.00    +0.063 A 
ATOM      8  C   UNL     1       2.405   1.280   0.181  0.00  0.00    +0.167 A 
ATOM      9  C   UNL     1       2.497  -0.069   0.145  0.00  0.00    +0.168 A 
ATOM     10  O   UNL     1       3.810  -0.447   0.351  0.00  0.00    -0.453 OA
ATOM     11  C   UNL     1       4.591   0.743   0.527  0.00  0.00    +0.466 C 
ATOM     12  O   UNL     1       3.655   1.823   0.411  0.00  0.00    -0.453 OA
ATOM     13  C   UNL     1       1.391  -0.881  -0.071  0.00  0.00    +0.077 A 
ATOM     14  C   UNL     1       0.122  -0.265  -0.260  0.00  0.00    +0.075 A 
ENDROOT
BRANCH   1  16
ATOM     15  C   UNL     1      -1.087  -3.059   0.863  0.00  0.00    +0.029 C 
ATOM     16  C   UNL     1      -1.044  -2.465  -0.542  0.00  0.00    +0.141 C 
ENDBRANCH   1  16
BRANCH   3  17
ATOM     17  C   UNL     1      -3.704   1.534  -0.777  0.00  0.00    +0.361 C 
ATOM     18  O   UNL     1      -4.680   0.758  -0.961  0.00  0.00    -0.243 OA
BRANCH  17  19
ATOM     19  O   UNL     1      -3.924   2.909  -0.747  0.00  0.00    -0.476 OA
ATOM     20  H   UNL     1      -4.854   3.290  -0.872  0.00  0.00    +0.295 HD
ENDBRANCH  17  19
ENDBRANCH   3  17
TORSDOF 3
