REMARK  Name = 
REMARK  5 active torsions:
REMARK  status: ('A' for Active; 'I' for Inactive)
REMARK    1  A    between atoms: O_1  and  C_2
REMARK    2  A    between atoms: C_4  and  C_5
REMARK    3  A    between atoms: N_19  and  C_20
REMARK    4  A    between atoms: C_20  and  C_21
REMARK    5  A    between atoms: C_21  and  C_22
REMARK                            x       y       z     vdW  Elec       q    Type
REMARK                         _______ _______ _______ _____ _____    ______ ____
ROOT
ATOM      1  C   UNL     1      -0.610   2.068  -1.347  0.00  0.00    +0.320 C 
ATOM      2  N   UNL     1       0.669   1.763  -0.712  0.00  0.00    -0.243 NA
ATOM      3  C   UNL     1       1.071   0.583  -0.337  0.00  0.00    +0.081 C 
ATOM      4  C   UNL     1       0.261  -0.639  -0.611  0.00  0.00    +0.023 A 
ATOM      5  C   UNL     1      -1.139  -0.699  -0.370  0.00  0.00    +0.046 A 
ATOM      6  C   UNL     1      -1.821  -1.903  -0.635  0.00  0.00    +0.025 A 
ATOM      7  C   UNL     1      -1.148  -3.015  -1.139  0.00  0.00    +0.022 A 
ATOM      8  C   UNL     1       0.221  -2.950  -1.387  0.00  0.00    +0.042 A 
ATOM      9 CL   UNL     1       1.064  -4.349  -2.027  0.00  0.00    -0.084 Cl
ATOM     10  C   UNL     1       0.920  -1.771  -1.127  0.00  0.00    +0.032 A 
ATOM     11  N   UNL     1      -1.870   0.429   0.169  0.00  0.00    -0.266 N 
ATOM     12  C   UNL     1      -1.715   1.754  -0.388  0.00  0.00    +0.271 C 
ATOM     13  O   UNL     1      -2.486   2.686  -0.031  0.00  0.00    -0.270 OA
ENDROOT
BRANCH   3  14
ATOM     14  C   UNL     1       2.406   0.468   0.303  0.00  0.00    +0.036 A 
ATOM     15  C   UNL     1       3.462   1.295  -0.123  0.00  0.00    +0.013 A 
ATOM     16  C   UNL     1       4.724   1.195   0.469  0.00  0.00    +0.001 A 
ATOM     17  C   UNL     1       4.945   0.277   1.497  0.00  0.00    +0.003 A 
ATOM     18  C   UNL     1       3.903  -0.540   1.940  0.00  0.00    +0.039 A 
ATOM     19  C   UNL     1       2.637  -0.447   1.352  0.00  0.00    +0.133 A 
ATOM     20  F   UNL     1       1.634  -1.226   1.832  0.00  0.00    -0.205 F 
ENDBRANCH   3  14
BRANCH   1  21
ATOM     21  O   UNL     1      -0.770   1.337  -2.534  0.00  0.00    -0.364 OA
ATOM     22  H   UNL     1      -0.073   1.662  -3.161  0.00  0.00    +0.212 HD
ENDBRANCH   1  21
BRANCH  11  23
ATOM     23  C   UNL     1      -2.805   0.215   1.288  0.00  0.00    +0.128 C 
BRANCH  23  24
ATOM     24  C   UNL     1      -4.267   0.142   0.806  0.00  0.00    +0.138 C 
BRANCH  24  25
ATOM     25  C   UNL     1      -4.962   1.424   0.974  0.00  0.00    +0.064 C 
ATOM     26  N   UNL     1      -5.511   2.434   1.107  0.00  0.00    -0.197 NA
ENDBRANCH  24  25
ENDBRANCH  23  24
ENDBRANCH  11  23
TORSDOF 5
