REMARK  Name = 
REMARK  4 active torsions:
REMARK  status: ('A' for Active; 'I' for Inactive)
REMARK    1  A    between atoms: O_1  and  C_2
REMARK    2  A    between atoms: C_2  and  C_4
REMARK    3  A    between atoms: N_6  and  C_7
REMARK    4  A    between atoms: C_12  and  N_13
REMARK                            x       y       z     vdW  Elec       q    Type
REMARK                         _______ _______ _______ _____ _____    ______ ____
ROOT
ATOM      1  C   UNL     1      -3.501   2.063   0.043  0.00  0.00    +0.122 A 
ATOM      2  C   UNL     1      -3.465   0.813  -0.594  0.00  0.00    +0.105 A 
ATOM      3  N   UNL     1      -2.329   0.052  -0.624  0.00  0.00    -0.343 N 
ATOM      4  C   UNL     1      -1.144   0.550  -0.122  0.00  0.00    +0.055 A 
ATOM      5  C   UNL     1       0.075  -0.154  -0.261  0.00  0.00    +0.052 A 
ATOM      6  C   UNL     1       1.268   0.347   0.281  0.00  0.00    +0.067 A 
ATOM      7  C   UNL     1       1.256   1.567   0.965  0.00  0.00    +0.145 A 
ATOM      8  F   UNL     1       2.392   2.050   1.529  0.00  0.00    -0.204 F 
ATOM      9  C   UNL     1       0.071   2.292   1.088  0.00  0.00    +0.054 A 
ATOM     10  C   UNL     1      -1.131   1.804   0.541  0.00  0.00    +0.049 A 
ATOM     11  C   UNL     1      -2.320   2.550   0.631  0.00  0.00    +0.203 A 
ATOM     12  O   UNL     1      -2.320   3.661   1.230  0.00  0.00    -0.286 OA
ENDROOT
BRANCH   6  13
ATOM     13  N   UNL     1       2.494  -0.392   0.141  0.00  0.00    -0.325 N 
ATOM     14  C   UNL     1       3.595   0.173  -0.645  0.00  0.00    +0.120 C 
ATOM     15  C   UNL     1       4.934  -0.302  -0.077  0.00  0.00    +0.100 C 
ATOM     16  N   UNL     1       4.951  -1.767   0.029  0.00  0.00    -0.313 NA
ATOM     17  C   UNL     1       3.904  -2.228   0.950  0.00  0.00    +0.100 C 
ATOM     18  C   UNL     1       2.522  -1.830   0.427  0.00  0.00    +0.120 C 
ATOM     19  H   UNL     1       5.876  -2.046   0.433  0.00  0.00    +0.122 HD
ENDBRANCH   6  13
BRANCH   3  20
ATOM     20  C   UNL     1      -2.396  -1.260  -1.296  0.00  0.00    +0.087 C 
ATOM     21  C   UNL     1      -3.545  -2.163  -0.848  0.00  0.00    +0.027 C 
ATOM     22  C   UNL     1      -2.135  -2.446  -0.372  0.00  0.00    +0.027 C 
ENDBRANCH   3  20
BRANCH   1  23
ATOM     23  C   UNL     1      -4.775   2.833   0.079  0.00  0.00    +0.342 C 
ATOM     24  O   UNL     1      -5.823   2.351  -0.431  0.00  0.00    -0.245 OA
BRANCH  23  25
ATOM     25  O   UNL     1      -4.833   4.092   0.671  0.00  0.00    -0.477 OA
ATOM     26  H   UNL     1      -5.700   4.617   0.695  0.00  0.00    +0.295 HD
ENDBRANCH  23  25
ENDBRANCH   1  23
TORSDOF 4
