REMARK  Name = 
REMARK  38 active torsions:
REMARK  status: ('A' for Active; 'I' for Inactive)
REMARK    1  A    between atoms: S_2  and  C_5
REMARK    2  A    between atoms: S_12  and  C_15
REMARK    3  A    between atoms: C_21  and  O_22
REMARK    4  A    between atoms: O_22  and  C_23
REMARK    5  A    between atoms: C_24  and  O_25
REMARK    6  A    between atoms: O_25  and  C_26
REMARK    7  A    between atoms: C_28  and  C_29
REMARK    8  A    between atoms: C_29  and  C_30
REMARK    9  A    between atoms: C_33  and  O_34
REMARK   10  A    between atoms: O_34  and  C_35
REMARK   11  A    between atoms: C_36  and  O_37
REMARK   12  A    between atoms: O_37  and  C_38
REMARK   13  A    between atoms: N_43  and  C_44
REMARK   14  A    between atoms: N_43  and  C_45
REMARK   15  A    between atoms: C_45  and  C_46
REMARK   16  A    between atoms: C_46  and  C_47
REMARK   17  A    between atoms: C_47  and  O_49
REMARK   18  A    between atoms: O_49  and  C_50
REMARK   19  A    between atoms: C_50  and  C_51
REMARK   20  A    between atoms: C_51  and  C_52
REMARK   21  A    between atoms: C_52  and  C_53
REMARK   22  A    between atoms: C_53  and  C_54
REMARK   23  A    between atoms: C_54  and  O_55
REMARK   24  A    between atoms: O_55  and  C_56
REMARK   25  A    between atoms: C_56  and  C_58
REMARK   26  A    between atoms: C_58  and  C_59
REMARK   27  A    between atoms: C_59  and  N_60
REMARK   28  A    between atoms: N_60  and  C_61
REMARK   29  A    between atoms: C_66  and  O_67
REMARK   30  A    between atoms: O_67  and  C_68
REMARK   31  A    between atoms: C_69  and  O_70
REMARK   32  A    between atoms: O_70  and  C_71
REMARK   33  A    between atoms: C_74  and  C_75
REMARK   34  A    between atoms: C_75  and  C_76
REMARK   35  A    between atoms: C_78  and  O_79
REMARK   36  A    between atoms: O_79  and  C_80
REMARK   37  A    between atoms: C_81  and  O_82
REMARK   38  A    between atoms: O_82  and  C_83
REMARK                            x       y       z     vdW  Elec       q    Type
REMARK                         _______ _______ _______ _____ _____    ______ ____
ROOT
ATOM      1  C   UNL     1       0.622  -0.029  -0.008  0.00  0.00    +0.120 A 
ATOM      2  C   UNL     1      -0.032   1.184  -0.269  0.00  0.00    +0.029 A 
ATOM      3  C   UNL     1      -1.429   1.239  -0.291  0.00  0.00    +0.002 A 
ATOM      4  C   UNL     1      -2.179   0.082  -0.053  0.00  0.00    +0.000 A 
ATOM      5  C   UNL     1      -1.532  -1.129   0.212  0.00  0.00    +0.002 A 
ATOM      6  C   UNL     1      -0.134  -1.184   0.235  0.00  0.00    +0.029 A 
ENDROOT
BRANCH   1   8
ATOM      7  O   UNL     1       2.912   0.206   1.602  0.00  0.00    -0.043 OA
ATOM      8  S   UNL     1       2.382  -0.093   0.035  0.00  0.00    +0.140 S 
ATOM      9  O   UNL     1       2.852  -1.452  -0.405  0.00  0.00    -0.140 OA
ATOM     10  O   UNL     1       2.953   0.938  -0.896  0.00  0.00    -0.140 OA
ENDBRANCH   1   8
TORSDOF 1
REMARK  Name = 
REMARK  38 active torsions:
REMARK  status: ('A' for Active; 'I' for Inactive)
REMARK    1  A    between atoms: S_2  and  C_5
REMARK    2  A    between atoms: S_12  and  C_15
REMARK    3  A    between atoms: C_21  and  O_22
REMARK    4  A    between atoms: O_22  and  C_23
REMARK    5  A    between atoms: C_24  and  O_25
REMARK    6  A    between atoms: O_25  and  C_26
REMARK    7  A    between atoms: C_28  and  C_29
REMARK    8  A    between atoms: C_29  and  C_30
REMARK    9  A    between atoms: C_33  and  O_34
REMARK   10  A    between atoms: O_34  and  C_35
REMARK   11  A    between atoms: C_36  and  O_37
REMARK   12  A    between atoms: O_37  and  C_38
REMARK   13  A    between atoms: N_43  and  C_44
REMARK   14  A    between atoms: N_43  and  C_45
REMARK   15  A    between atoms: C_45  and  C_46
REMARK   16  A    between atoms: C_46  and  C_47
REMARK   17  A    between atoms: C_47  and  O_49
REMARK   18  A    between atoms: O_49  and  C_50
REMARK   19  A    between atoms: C_50  and  C_51
REMARK   20  A    between atoms: C_51  and  C_52
REMARK   21  A    between atoms: C_52  and  C_53
REMARK   22  A    between atoms: C_53  and  C_54
REMARK   23  A    between atoms: C_54  and  O_55
REMARK   24  A    between atoms: O_55  and  C_56
REMARK   25  A    between atoms: C_56  and  C_58
REMARK   26  A    between atoms: C_58  and  C_59
REMARK   27  A    between atoms: C_59  and  N_60
REMARK   28  A    between atoms: N_60  and  C_61
REMARK   29  A    between atoms: C_66  and  O_67
REMARK   30  A    between atoms: O_67  and  C_68
REMARK   31  A    between atoms: C_69  and  O_70
REMARK   32  A    between atoms: O_70  and  C_71
REMARK   33  A    between atoms: C_74  and  C_75
REMARK   34  A    between atoms: C_75  and  C_76
REMARK   35  A    between atoms: C_78  and  O_79
REMARK   36  A    between atoms: O_79  and  C_80
REMARK   37  A    between atoms: C_81  and  O_82
REMARK   38  A    between atoms: O_82  and  C_83
REMARK                            x       y       z     vdW  Elec       q    Type
REMARK                         _______ _______ _______ _____ _____    ______ ____
ROOT
ATOM      1  C   UNL     1       0.623  -0.029  -0.008  0.00  0.00    +0.120 A 
ATOM      2  C   UNL     1      -0.033   1.184  -0.269  0.00  0.00    +0.029 A 
ATOM      3  C   UNL     1      -1.429   1.239  -0.291  0.00  0.00    +0.002 A 
ATOM      4  C   UNL     1      -2.179   0.082  -0.053  0.00  0.00    +0.000 A 
ATOM      5  C   UNL     1      -1.532  -1.129   0.212  0.00  0.00    +0.002 A 
ATOM      6  C   UNL     1      -0.134  -1.184   0.235  0.00  0.00    +0.029 A 
ENDROOT
BRANCH   1   8
ATOM      7  O   UNL     1       2.912   0.206   1.602  0.00  0.00    -0.043 OA
ATOM      8  S   UNL     1       2.381  -0.094   0.034  0.00  0.00    +0.140 S 
ATOM      9  O   UNL     1       2.851  -1.452  -0.404  0.00  0.00    -0.140 OA
ATOM     10  O   UNL     1       2.953   0.938  -0.897  0.00  0.00    -0.140 OA
ENDBRANCH   1   8
TORSDOF 1
REMARK  Name = 
REMARK  38 active torsions:
REMARK  status: ('A' for Active; 'I' for Inactive)
REMARK    1  A    between atoms: S_2  and  C_5
REMARK    2  A    between atoms: S_12  and  C_15
REMARK    3  A    between atoms: C_21  and  O_22
REMARK    4  A    between atoms: O_22  and  C_23
REMARK    5  A    between atoms: C_24  and  O_25
REMARK    6  A    between atoms: O_25  and  C_26
REMARK    7  A    between atoms: C_28  and  C_29
REMARK    8  A    between atoms: C_29  and  C_30
REMARK    9  A    between atoms: C_33  and  O_34
REMARK   10  A    between atoms: O_34  and  C_35
REMARK   11  A    between atoms: C_36  and  O_37
REMARK   12  A    between atoms: O_37  and  C_38
REMARK   13  A    between atoms: N_43  and  C_44
REMARK   14  A    between atoms: N_43  and  C_45
REMARK   15  A    between atoms: C_45  and  C_46
REMARK   16  A    between atoms: C_46  and  C_47
REMARK   17  A    between atoms: C_47  and  O_49
REMARK   18  A    between atoms: O_49  and  C_50
REMARK   19  A    between atoms: C_50  and  C_51
REMARK   20  A    between atoms: C_51  and  C_52
REMARK   21  A    between atoms: C_52  and  C_53
REMARK   22  A    between atoms: C_53  and  C_54
REMARK   23  A    between atoms: C_54  and  O_55
REMARK   24  A    between atoms: O_55  and  C_56
REMARK   25  A    between atoms: C_56  and  C_58
REMARK   26  A    between atoms: C_58  and  C_59
REMARK   27  A    between atoms: C_59  and  N_60
REMARK   28  A    between atoms: N_60  and  C_61
REMARK   29  A    between atoms: C_66  and  O_67
REMARK   30  A    between atoms: O_67  and  C_68
REMARK   31  A    between atoms: C_69  and  O_70
REMARK   32  A    between atoms: O_70  and  C_71
REMARK   33  A    between atoms: C_74  and  C_75
REMARK   34  A    between atoms: C_75  and  C_76
REMARK   35  A    between atoms: C_78  and  O_79
REMARK   36  A    between atoms: O_79  and  C_80
REMARK   37  A    between atoms: C_81  and  O_82
REMARK   38  A    between atoms: O_82  and  C_83
REMARK                            x       y       z     vdW  Elec       q    Type
REMARK                         _______ _______ _______ _____ _____    ______ ____
ROOT
ATOM      1  C   UNL     1       0.492  -0.909   0.201  0.00  0.00    +0.007 C 
ENDROOT
BRANCH   1   2
ATOM      2  C   UNL     1      -0.242  -1.178  -1.123  0.00  0.00    +0.041 C 
BRANCH   2   3
ATOM      3  C   UNL     1      -1.390  -0.191  -1.393  0.00  0.00    +0.232 C 
BRANCH   3   4
ATOM      4  O   UNL     1      -2.230   0.027  -0.256  0.00  0.00    -0.465 OA
BRANCH   4   5
ATOM      5  C   UNL     1      -2.917  -0.978   0.447  0.00  0.00    +0.305 C 
ATOM      6  O   UNL     1      -2.591  -2.188   0.342  0.00  0.00    -0.251 OA
BRANCH   5   7
ATOM      7  C   UNL     1      -4.068  -0.587   1.323  0.00  0.00    +0.102 C 
BRANCH   7   8
ATOM      8  C   UNL     1      -5.369  -0.651   0.493  0.00  0.00    -0.063 C 
BRANCH   8  18
ATOM      9  C   UNL     1      -7.804  -0.378   0.306  0.00  0.00    -0.030 C 
ATOM     10  C   UNL     1      -9.033   0.319   0.851  0.00  0.00    -0.053 A 
ATOM     11  C   UNL     1     -10.266  -0.343   0.943  0.00  0.00    +0.051 A 
ATOM     12  C   UNL     1     -11.422   0.356   1.335  0.00  0.00    +0.162 A 
ATOM     13  C   UNL     1     -11.332   1.721   1.647  0.00  0.00    +0.162 A 
ATOM     14  C   UNL     1     -10.080   2.364   1.605  0.00  0.00    +0.053 A 
ATOM     15  C   UNL     1      -8.932   1.658   1.223  0.00  0.00    -0.044 A 
ATOM     16  C   UNL     1      -7.628   2.378   1.048  0.00  0.00    +0.017 C 
ATOM     17  C   UNL     1      -6.370   1.480   1.214  0.00  0.00    -0.070 C 
ATOM     18  N   UNL     1      -6.579  -0.010   1.113  0.00  0.00    +0.384 N 
ATOM     19  C   UNL     1      -6.762  -0.573   2.489  0.00  0.00    -0.091 C 
BRANCH  12  20
ATOM     20  O   UNL     1     -12.678  -0.262   1.408  0.00  0.00    -0.491 OA
ATOM     21  C   UNL     1     -12.922  -1.628   1.086  0.00  0.00    +0.277 C 
ENDBRANCH  12  20
BRANCH  13  22
ATOM     22  O   UNL     1     -12.513   2.408   1.979  0.00  0.00    -0.491 OA
ATOM     23  C   UNL     1     -12.588   3.811   2.209  0.00  0.00    +0.277 C 
ENDBRANCH  13  22
BRANCH   9  24
ATOM     24  C   UNL     1      -7.699  -0.091  -1.228  0.00  0.00    +0.025 C 
BRANCH  24  28
ATOM     25  C   UNL     1     -11.221  -1.726  -3.123  0.00  0.00    +0.161 A 
ATOM     26  C   UNL     1     -11.155  -0.347  -2.852  0.00  0.00    +0.162 A 
ATOM     27  C   UNL     1      -9.988   0.190  -2.279  0.00  0.00    +0.053 A 
ATOM     28  C   UNL     1      -8.900  -0.638  -1.965  0.00  0.00    -0.045 A 
ATOM     29  C   UNL     1      -8.978  -2.010  -2.236  0.00  0.00    +0.007 A 
ATOM     30  C   UNL     1     -10.121  -2.551  -2.820  0.00  0.00    +0.049 A 
BRANCH  25  32
ATOM     31  C   UNL     1     -12.623  -3.624  -3.957  0.00  0.00    +0.277 C 
ATOM     32  O   UNL     1     -12.401  -2.244  -3.680  0.00  0.00    -0.491 OA
ENDBRANCH  25  32
BRANCH  26  33
ATOM     33  O   UNL     1     -12.268   0.449  -3.164  0.00  0.00    -0.491 OA
ATOM     34  C   UNL     1     -12.332   1.859  -2.961  0.00  0.00    +0.277 C 
ENDBRANCH  26  33
ENDBRANCH  24  28
ENDBRANCH   9  24
ENDBRANCH   8  18
ENDBRANCH   7   8
ENDBRANCH   5   7
ENDBRANCH   4   5
ENDBRANCH   3   4
ENDBRANCH   2   3
ENDBRANCH   1   2
BRANCH   1  35
ATOM     35  C   UNL     1       1.066  -2.209   0.786  0.00  0.00    +0.041 C 
BRANCH  35  36
ATOM     36  C   UNL     1       1.703  -1.980   2.158  0.00  0.00    +0.232 C 
BRANCH  36  37
ATOM     37  O   UNL     1       2.810  -1.093   2.051  0.00  0.00    -0.465 OA
BRANCH  37  38
ATOM     38  C   UNL     1       4.044  -1.477   1.520  0.00  0.00    +0.305 C 
ATOM     39  O   UNL     1       4.274  -2.688   1.254  0.00  0.00    -0.251 OA
BRANCH  38  40
ATOM     40  C   UNL     1       5.075  -0.423   1.256  0.00  0.00    +0.102 C 
BRANCH  40  41
ATOM     41  C   UNL     1       6.516  -0.885   1.581  0.00  0.00    -0.063 C 
BRANCH  41  42
ATOM     42  N   UNL     1       7.326  -1.570   0.484  0.00  0.00    +0.384 N 
ATOM     43  C   UNL     1       7.606  -2.969   0.931  0.00  0.00    -0.091 C 
ATOM     44  C   UNL     1       6.620  -1.715  -0.845  0.00  0.00    -0.070 C 
ATOM     45  C   UNL     1       6.676  -0.492  -1.803  0.00  0.00    +0.017 C 
ATOM     46  C   UNL     1       7.290   0.735  -1.194  0.00  0.00    -0.044 A 
ATOM     47  C   UNL     1       6.877   2.000  -1.628  0.00  0.00    +0.053 A 
ATOM     48  C   UNL     1       7.385   3.162  -1.030  0.00  0.00    +0.162 A 
ATOM     49  C   UNL     1       8.321   3.049   0.005  0.00  0.00    +0.162 A 
ATOM     50  C   UNL     1       8.761   1.774   0.412  0.00  0.00    +0.051 A 
ATOM     51  C   UNL     1       8.279   0.605  -0.208  0.00  0.00    -0.053 A 
ATOM     52  C   UNL     1       8.620  -0.822   0.244  0.00  0.00    -0.030 C 
BRANCH  48  53
ATOM     53  O   UNL     1       6.972   4.448  -1.421  0.00  0.00    -0.491 OA
ATOM     54  C   UNL     1       5.985   4.707  -2.418  0.00  0.00    +0.277 C 
ENDBRANCH  48  53
BRANCH  49  55
ATOM     55  O   UNL     1       8.778   4.226   0.623  0.00  0.00    -0.491 OA
ATOM     56  C   UNL     1       9.682   4.266   1.724  0.00  0.00    +0.277 C 
ENDBRANCH  49  55
BRANCH  52  57
ATOM     57  C   UNL     1       9.657  -0.908   1.425  0.00  0.00    +0.025 C 
BRANCH  57  58
ATOM     58  C   UNL     1      11.054  -0.450   1.056  0.00  0.00    -0.045 A 
ATOM     59  C   UNL     1      11.765  -1.089   0.028  0.00  0.00    +0.053 A 
ATOM     60  C   UNL     1      13.081  -0.700  -0.288  0.00  0.00    +0.162 A 
ATOM     61  C   UNL     1      13.700   0.316   0.457  0.00  0.00    +0.161 A 
ATOM     62  C   UNL     1      12.998   0.932   1.511  0.00  0.00    +0.049 A 
ATOM     63  C   UNL     1      11.700   0.532   1.819  0.00  0.00    +0.007 A 
BRANCH  60  64
ATOM     64  O   UNL     1      13.807  -1.293  -1.336  0.00  0.00    -0.491 OA
ATOM     65  C   UNL     1      13.342  -2.376  -2.132  0.00  0.00    +0.277 C 
ENDBRANCH  60  64
BRANCH  61  66
ATOM     66  O   UNL     1      15.016   0.681   0.127  0.00  0.00    -0.491 OA
ATOM     67  C   UNL     1      15.754   1.719   0.757  0.00  0.00    +0.277 C 
ENDBRANCH  61  66
ENDBRANCH  57  58
ENDBRANCH  52  57
ENDBRANCH  41  42
ENDBRANCH  40  41
ENDBRANCH  38  40
ENDBRANCH  37  38
ENDBRANCH  36  37
ENDBRANCH  35  36
ENDBRANCH   1  35
TORSDOF 26
