REMARK  Name = 
REMARK  12 active torsions:
REMARK  status: ('A' for Active; 'I' for Inactive)
REMARK    1  A    between atoms: C_1  and  O_2
REMARK    2  A    between atoms: O_2  and  C_3
REMARK    3  A    between atoms: N_5  and  C_6
REMARK    4  A    between atoms: C_6  and  C_7
REMARK    5  A    between atoms: C_7  and  C_8
REMARK    6  A    between atoms: C_8  and  O_9
REMARK    7  A    between atoms: O_9  and  C_10
REMARK    8  A    between atoms: C_19  and  N_20
REMARK    9  A    between atoms: C_21  and  C_23
REMARK   10  A    between atoms: C_27  and  N_28
REMARK   11  A    between atoms: C_30  and  O_31
REMARK   12  A    between atoms: O_31  and  C_32
REMARK                            x       y       z     vdW  Elec       q    Type
REMARK                         _______ _______ _______ _____ _____    ______ ____
ROOT
ATOM      1  C   UNL     1      -0.400   1.833  -0.598  0.00  0.00    +0.152 C 
ATOM      2  C   UNL     1       1.109   2.158  -0.731  0.00  0.00    +0.117 C 
ATOM      3  N   UNL     1       1.944   1.007  -1.158  0.00  0.00    -0.300 NA
ATOM      4  C   UNL     1       1.433   0.383  -2.398  0.00  0.00    +0.086 C 
ATOM      5  C   UNL     1      -0.030  -0.062  -2.262  0.00  0.00    +0.040 C 
ATOM      6  C   UNL     1      -0.902   1.142  -1.881  0.00  0.00    +0.104 C 
ENDROOT
BRANCH   6   7
ATOM      7  N   UNL     1      -2.332   0.801  -1.803  0.00  0.00    -0.306 N 
ATOM      8  C   UNL     1      -2.923  -0.146  -0.893  0.00  0.00    +0.248 C 
ATOM      9  O   UNL     1      -2.217  -1.046  -0.366  0.00  0.00    -0.270 OA
ATOM     10  H   UNL     1      -2.972   1.319  -2.446  0.00  0.00    +0.149 HD
BRANCH   8  11
ATOM     11  C   UNL     1      -4.369  -0.070  -0.571  0.00  0.00    +0.080 A 
ATOM     12  C   UNL     1      -5.004   1.183  -0.537  0.00  0.00    +0.038 A 
ATOM     13  C   UNL     1      -6.359   1.295  -0.216  0.00  0.00    +0.062 A 
ATOM     14 CL   UNL     1      -7.081   2.900  -0.187  0.00  0.00    -0.082 Cl
ATOM     15  C   UNL     1      -7.107   0.141   0.080  0.00  0.00    +0.047 A 
ATOM     16  C   UNL     1      -6.480  -1.111   0.051  0.00  0.00    +0.070 A 
ATOM     17  C   UNL     1      -5.114  -1.232  -0.274  0.00  0.00    +0.134 A 
BRANCH  15  18
ATOM     18  N   UNL     1      -8.499   0.222   0.415  0.00  0.00    -0.357 N 
ATOM     19  H   UNL     1      -9.042  -0.643   0.635  0.00  0.00    +0.142 HD
ATOM     20  H   UNL     1      -9.007   1.132   0.454  0.00  0.00    +0.142 HD
ENDBRANCH  15  18
BRANCH  17  21
ATOM     21  O   UNL     1      -4.479  -2.485  -0.322  0.00  0.00    -0.494 OA
ATOM     22  C   UNL     1      -5.116  -3.729  -0.051  0.00  0.00    +0.277 C 
ENDBRANCH  17  21
ENDBRANCH   8  11
ENDBRANCH   6   7
BRANCH   1  24
ATOM     23  C   UNL     1      -1.036   1.779   1.643  0.00  0.00    +0.194 C 
ATOM     24  O   UNL     1      -0.628   1.010   0.533  0.00  0.00    -0.377 OA
ENDBRANCH   1  24
BRANCH   3  25
ATOM     25  C   UNL     1       2.237   0.011  -0.100  0.00  0.00    +0.088 C 
BRANCH  25  26
ATOM     26  C   UNL     1       3.181   0.583   0.970  0.00  0.00    +0.056 C 
BRANCH  26  27
ATOM     27  C   UNL     1       3.727  -0.516   1.892  0.00  0.00    +0.230 C 
BRANCH  27  28
ATOM     28  O   UNL     1       4.571  -1.422   1.178  0.00  0.00    -0.492 OA
BRANCH  28  29
ATOM     29  C   UNL     1       5.879  -1.151   0.744  0.00  0.00    +0.121 A 
ATOM     30  C   UNL     1       6.567   0.032   1.084  0.00  0.00    +0.048 A 
ATOM     31  C   UNL     1       7.871   0.244   0.623  0.00  0.00    +0.042 A 
ATOM     32  C   UNL     1       8.499  -0.716  -0.175  0.00  0.00    +0.124 A 
ATOM     33  F   UNL     1       9.763  -0.507  -0.619  0.00  0.00    -0.205 F 
ATOM     34  C   UNL     1       7.824  -1.891  -0.513  0.00  0.00    +0.042 A 
ATOM     35  C   UNL     1       6.521  -2.107  -0.054  0.00  0.00    +0.048 A 
ENDBRANCH  28  29
ENDBRANCH  27  28
ENDBRANCH  26  27
ENDBRANCH  25  26
ENDBRANCH   3  25
TORSDOF 10
