REMARK  Name = 
REMARK  2 active torsions:
REMARK  status: ('A' for Active; 'I' for Inactive)
REMARK    1  A    between atoms: N_1  and  PT_2
REMARK    2  A    between atoms: PT_2  and  N_3
REMARK                            x       y       z     vdW  Elec       q    Type
REMARK                         _______ _______ _______ _____ _____    ______ ____
ROOT
ATOM      1 PT   UNL     1       0.385   0.189  -1.988  0.00  0.00    +0.000 Pt
ATOM      2 CL   UNL     1      -1.995   0.188  -1.988  0.00  0.00    +0.000 Cl
ATOM      3 CL   UNL     1       1.178   2.205  -2.971  0.00  0.00    +0.000 Cl
ENDROOT
BRANCH   1   4
ATOM      4  N   UNL     1       1.075   0.052  -0.041  0.00  0.00    +0.000 NA
ATOM      5  H   UNL     1       0.735  -0.812   0.381  0.00  0.00    +0.000 HD
ATOM      6  H   UNL     1       2.095   0.052  -0.041  0.00  0.00    +0.000 HD
ENDBRANCH   1   4
BRANCH   1   7
ATOM      7  N   UNL     1       1.075  -1.429  -3.079  0.00  0.00    +0.000 NA
ATOM      8  H   UNL     1       0.735  -1.362  -4.039  0.00  0.00    +0.000 HD
ATOM      9  H   UNL     1       2.095  -1.429  -3.079  0.00  0.00    +0.000 HD
ENDBRANCH   1   7
TORSDOF 2
