REMARK  Name = 
REMARK  8 active torsions:
REMARK  status: ('A' for Active; 'I' for Inactive)
REMARK    1  A    between atoms: C_1  and  N_2
REMARK    2  A    between atoms: N_2  and  C_3
REMARK    3  A    between atoms: N_2  and  C_4
REMARK    4  A    between atoms: C_4  and  C_5
REMARK    5  A    between atoms: C_5  and  C_6
REMARK    6  A    between atoms: C_6  and  C_7
REMARK    7  A    between atoms: C_7  and  C_18
REMARK    8  A    between atoms: C_14  and  C_16
REMARK                            x       y       z     vdW  Elec       q    Type
REMARK                         _______ _______ _______ _____ _____    ______ ____
ROOT
ATOM      1  C   UNL     1      -0.506  -0.675   0.294  0.00  0.00    +0.120 C 
ATOM      2  O   UNL     1       0.265  -0.367   1.457  0.00  0.00    -0.360 OA
ATOM      3  C   UNL     1       0.025   0.988   1.817  0.00  0.00    +0.197 C 
ATOM      4  C   UNL     1      -0.887   1.548   0.810  0.00  0.00    -0.014 A 
ATOM      5  C   UNL     1      -1.199   0.588  -0.089  0.00  0.00    -0.006 A 
ATOM      6  C   UNL     1      -2.044   0.857  -1.172  0.00  0.00    +0.008 A 
ATOM      7  C   UNL     1      -2.569   2.152  -1.308  0.00  0.00    +0.019 A 
ATOM      8  C   UNL     1      -2.241   3.151  -0.367  0.00  0.00    +0.052 A 
ATOM      9  C   UNL     1      -1.387   2.847   0.708  0.00  0.00    +0.025 A 
ENDROOT
BRANCH   1  10
ATOM     10  C   UNL     1      -1.552  -1.742   0.639  0.00  0.00    -0.011 A 
ATOM     11  C   UNL     1      -2.221  -2.466  -0.373  0.00  0.00    +0.009 A 
ATOM     12  C   UNL     1      -3.203  -3.407  -0.051  0.00  0.00    +0.039 A 
ATOM     13  C   UNL     1      -3.548  -3.632   1.282  0.00  0.00    +0.123 A 
ATOM     14  F   UNL     1      -4.502  -4.544   1.591  0.00  0.00    -0.205 F 
ATOM     15  C   UNL     1      -2.917  -2.910   2.295  0.00  0.00    +0.039 A 
ATOM     16  C   UNL     1      -1.935  -1.967   1.980  0.00  0.00    +0.009 A 
ENDBRANCH   1  10
BRANCH   8  17
ATOM     17  C   UNL     1      -2.777   4.479  -0.508  0.00  0.00    +0.099 C 
ATOM     18  N   UNL     1      -3.208   5.547  -0.622  0.00  0.00    -0.191 NA
ENDBRANCH   8  17
BRANCH   1  19
ATOM     19  C   UNL     1       0.456  -1.153  -0.833  0.00  0.00    +0.046 C 
BRANCH  19  20
ATOM     20  C   UNL     1       1.683  -0.241  -1.058  0.00  0.00    +0.019 C 
BRANCH  20  21
ATOM     21  C   UNL     1       2.909  -0.691  -0.229  0.00  0.00    +0.084 C 
BRANCH  21  23
ATOM     22  C   UNL     1       3.841   1.505   0.370  0.00  0.00    +0.104 C 
ATOM     23  N   UNL     1       4.071   0.223  -0.312  0.00  0.00    -0.308 NA
ATOM     24  C   UNL     1       4.548   0.429  -1.689  0.00  0.00    +0.104 C 
ENDBRANCH  21  23
ENDBRANCH  20  21
ENDBRANCH  19  20
ENDBRANCH   1  19
TORSDOF 6
