REMARK  Name = 
REMARK  5 active torsions:
REMARK  status: ('A' for Active; 'I' for Inactive)
REMARK    1  A    between atoms: N_1  and  C_2
REMARK    2  A    between atoms: N_6  and  C1*_7
REMARK    3  A    between atoms: C3*_9  and  O3*_10
REMARK    4  A    between atoms: C4*_11  and  C5*_12
REMARK    5  A    between atoms: C5*_12  and  O5*_13
REMARK                            x       y       z     vdW  Elec       q    Type
REMARK                         _______ _______ _______ _____ _____    ______ ____
ROOT
ATOM      1  C   UNL     1      -4.077   0.193  -0.293  0.00  0.00    +0.149 A 
ATOM      2  C   UNL     1      -2.756   0.231   0.140  0.00  0.00    +0.147 A 
ATOM      3  N   UNL     1      -2.182   1.017   1.070  0.00  0.00    -0.231 NA
ATOM      4  C   UNL     1      -0.879   0.622   1.034  0.00  0.00    +0.203 A 
ATOM      5  N   UNL     1      -0.641  -0.371   0.136  0.00  0.00    -0.288 N 
ATOM      6  C   UNL     1      -1.838  -0.588  -0.422  0.00  0.00    +0.169 A 
ATOM      7  N   UNL     1      -2.144  -1.458  -1.414  0.00  0.00    -0.198 NA
ATOM      8  C   UNL     1      -3.441  -1.507  -1.847  0.00  0.00    +0.226 A 
ATOM      9 CL   UNL     1      -3.890  -2.616  -3.123  0.00  0.00    -0.041 Cl
ATOM     10  N   UNL     1      -4.391  -0.689  -1.289  0.00  0.00    -0.201 NA
ENDROOT
BRANCH   5  11
ATOM     11  C1* UNL     1       0.646  -0.962  -0.236  0.00  0.00    +0.225 C 
ATOM     12  C2* UNL     1       1.364  -0.081  -1.253  0.00  0.00    +0.088 C 
ATOM     13  C3* UNL     1       2.439   0.578  -0.436  0.00  0.00    +0.150 C 
ATOM     14  C4* UNL     1       2.666  -0.435   0.678  0.00  0.00    +0.175 C 
ATOM     15  O4* UNL     1       1.451  -1.110   0.915  0.00  0.00    -0.348 OA
BRANCH  13  16
ATOM     16  O3* UNL     1       3.610   0.771  -1.186  0.00  0.00    -0.389 OA
ATOM     17  H3* UNL     1       3.434   1.542  -1.786  0.00  0.00    +0.210 HD
ENDBRANCH  13  16
BRANCH  14  18
ATOM     18  C5* UNL     1       3.151   0.225   1.976  0.00  0.00    +0.190 C 
BRANCH  18  19
ATOM     19  O5* UNL     1       4.375   0.880   1.775  0.00  0.00    -0.392 OA
ATOM     20  H5* UNL     1       5.069   0.173   1.714  0.00  0.00    +0.210 HD
ENDBRANCH  18  19
ENDBRANCH  14  18
ENDBRANCH   5  11
BRANCH   1  21
ATOM     21  N   UNL     1      -5.077   1.042   0.268  0.00  0.00    -0.341 N 
ATOM     22  H   UNL     1      -4.844   1.720   1.028  0.00  0.00    +0.144 HD
ATOM     23  H   UNL     1      -6.061   0.994  -0.079  0.00  0.00    +0.144 HD
ENDBRANCH   1  21
TORSDOF 5
