REMARK  Name = 
REMARK  26 active torsions:
REMARK  status: ('A' for Active; 'I' for Inactive)
REMARK    1  A    between atoms: C_1  and  O_12
REMARK    2  A    between atoms: C_3  and  C_4
REMARK    3  A    between atoms: C_3  and  O_5
REMARK    4  A    between atoms: O_5  and  C_6
REMARK    5  A    between atoms: C_7  and  O_8
REMARK    6  A    between atoms: C_9  and  C_10
REMARK    7  A    between atoms: O_12  and  C_13
REMARK    8  A    between atoms: C_14  and  C_15
REMARK    9  A    between atoms: C_16  and  O_17
REMARK   10  A    between atoms: O_17  and  C_18
REMARK   11  A    between atoms: C_20  and  C_21
REMARK   12  A    between atoms: C_23  and  N_26
REMARK   13  A    between atoms: C_24  and  O_25
REMARK   14  A    between atoms: N_26  and  C_27
REMARK   15  A    between atoms: N_26  and  C_28
REMARK   16  A    between atoms: C_29  and  C_30
REMARK   17  A    between atoms: C_29  and  O_51
REMARK   18  A    between atoms: C_32  and  C_33
REMARK   19  A    between atoms: C_36  and  C_37
REMARK   20  A    between atoms: C_38  and  O_39
REMARK   21  A    between atoms: C_40  and  C_41
REMARK   22  A    between atoms: C_40  and  O_42
REMARK   23  A    between atoms: C_43  and  C_44
REMARK   24  A    between atoms: C_44  and  C_45
REMARK   25  A    between atoms: C_49  and  C_50
REMARK   26  A    between atoms: O_51  and  C_52
REMARK                            x       y       z     vdW  Elec       q    Type
REMARK                         _______ _______ _______ _____ _____    ______ ____
ROOT
ATOM      1  C   UNL     1      -1.735   0.441   0.704  0.00  0.00    +0.140 C 
ATOM      2  C   UNL     1      -0.287  -0.139   0.819  0.00  0.00    +0.047 C 
ATOM      3  C   UNL     1       0.320   0.220   2.195  0.00  0.00    +0.013 C 
ATOM      4  C   UNL     1       0.672   0.317  -0.351  0.00  0.00    +0.158 C 
ATOM      5  C   UNL     1       0.203  -0.064  -1.830  0.00  0.00    +0.093 C 
ATOM      6  C   UNL     1       1.374   0.157  -2.825  0.00  0.00    +0.044 C 
ATOM      7  C   UNL     1      -0.339  -1.551  -1.932  0.00  0.00    +0.048 C 
ATOM      8  C   UNL     1       0.655  -2.724  -2.167  0.00  0.00    +0.055 C 
ATOM      9  C   UNL     1       1.669  -2.962  -1.034  0.00  0.00    +0.015 C 
ATOM     10  C   UNL     1      -0.164  -3.976  -2.439  0.00  0.00    +0.142 C 
ATOM     11  O   UNL     1      -0.354  -4.307  -3.596  0.00  0.00    -0.297 OA
ATOM     12  C   UNL     1      -0.875  -4.727  -1.323  0.00  0.00    +0.084 C 
ATOM     13  C   UNL     1      -0.415  -6.199  -1.361  0.00  0.00    +0.018 C 
ATOM     14  C   UNL     1      -2.426  -4.487  -1.417  0.00  0.00    +0.159 C 
ATOM     15  C   UNL     1      -3.364  -4.739  -0.170  0.00  0.00    +0.126 C 
ATOM     16  C   UNL     1      -3.642  -6.246   0.074  0.00  0.00    +0.048 C 
ATOM     17  C   UNL     1      -2.890  -4.039   1.163  0.00  0.00    +0.210 C 
ATOM     18  O   UNL     1      -2.587  -2.649   0.933  0.00  0.00    -0.458 OA
ATOM     19  C   UNL     1      -2.599  -1.694   1.971  0.00  0.00    +0.313 C 
ATOM     20  O   UNL     1      -2.575  -2.072   3.177  0.00  0.00    -0.250 OA
ATOM     21  C   UNL     1      -2.771  -0.213   1.688  0.00  0.00    +0.124 C 
ATOM     22  C   UNL     1      -4.215   0.017   1.219  0.00  0.00    +0.022 C 
ENDROOT
BRANCH  14  23
ATOM     23  O   UNL     1      -2.982  -5.074  -2.577  0.00  0.00    -0.388 OA
ATOM     24  H   UNL     1      -2.799  -6.049  -2.558  0.00  0.00    +0.210 HD
ENDBRANCH  14  23
BRANCH  15  25
ATOM     25  O   UNL     1      -4.595  -4.144  -0.528  0.00  0.00    -0.383 OA
ATOM     26  H   UNL     1      -5.270  -4.337   0.171  0.00  0.00    +0.210 HD
ENDBRANCH  15  25
BRANCH  17  27
ATOM     27  C   UNL     1      -1.735  -4.734   1.953  0.00  0.00    +0.044 C 
ATOM     28  C   UNL     1      -2.234  -5.539   3.155  0.00  0.00    +0.007 C 
ENDBRANCH  17  27
BRANCH   5  29
ATOM     29  O   UNL     1      -0.824   0.892  -2.136  0.00  0.00    -0.374 OA
ATOM     30  C   UNL     1      -1.519   0.704  -3.352  0.00  0.00    +0.194 C 
ENDBRANCH   5  29
BRANCH   1  31
ATOM     31  O   UNL     1      -1.652   1.829   1.011  0.00  0.00    -0.347 OA
BRANCH  31  32
ATOM     32  C   UNL     1      -2.292   2.704   0.102  0.00  0.00    +0.254 C 
ATOM     33  C   UNL     1      -3.151   3.668   0.965  0.00  0.00    +0.098 C 
ATOM     34  C   UNL     1      -2.466   5.033   1.129  0.00  0.00    +0.099 C 
ATOM     35  C   UNL     1      -3.359   5.921   2.024  0.00  0.00    +0.044 C 
ATOM     36  C   UNL     1      -2.381   5.582  -0.323  0.00  0.00    +0.175 C 
ATOM     37  C   UNL     1      -1.627   4.585  -1.258  0.00  0.00    +0.149 C 
ATOM     38  C   UNL     1      -2.372   4.341  -2.578  0.00  0.00    +0.041 C 
ATOM     39  O   UNL     1      -1.259   3.359  -0.634  0.00  0.00    -0.346 OA
BRANCH  34  40
ATOM     40  O   UNL     1      -1.210   4.772   1.766  0.00  0.00    -0.374 OA
ATOM     41  C   UNL     1      -0.322   5.869   1.799  0.00  0.00    +0.194 C 
ENDBRANCH  34  40
BRANCH  36  42
ATOM     42  O   UNL     1      -1.780   6.849  -0.362  0.00  0.00    -0.386 OA
ATOM     43  H   UNL     1      -2.011   7.254  -1.242  0.00  0.00    +0.210 HD
ENDBRANCH  36  42
ENDBRANCH  31  32
ENDBRANCH   1  31
BRANCH   4  44
ATOM     44  O   UNL     1       1.974  -0.196  -0.072  0.00  0.00    -0.342 OA
BRANCH  44  45
ATOM     45  C   UNL     1       2.927   0.824   0.200  0.00  0.00    +0.281 C 
ATOM     46  O   UNL     1       3.325   1.415  -1.025  0.00  0.00    -0.346 OA
ATOM     47  C   UNL     1       4.239   2.483  -0.832  0.00  0.00    +0.120 C 
ATOM     48  C   UNL     1       4.529   3.116  -2.191  0.00  0.00    +0.038 C 
ATOM     49  C   UNL     1       5.551   1.969  -0.198  0.00  0.00    +0.053 C 
ATOM     50  C   UNL     1       5.219   1.275   1.141  0.00  0.00    +0.092 C 
ATOM     51  C   UNL     1       4.148   0.185   0.897  0.00  0.00    +0.187 C 
BRANCH  50  52
ATOM     52  N   UNL     1       6.400   0.748   1.872  0.00  0.00    -0.303 NA
ATOM     53  C   UNL     1       7.202  -0.240   1.127  0.00  0.00    +0.105 C 
ATOM     54  C   UNL     1       7.264   1.833   2.377  0.00  0.00    +0.105 C 
ENDBRANCH  50  52
BRANCH  51  55
ATOM     55  O   UNL     1       3.744  -0.372   2.118  0.00  0.00    -0.385 OA
ATOM     56  H   UNL     1       4.404  -1.079   2.338  0.00  0.00    +0.210 HD
ENDBRANCH  51  55
ENDBRANCH  44  45
ENDBRANCH   4  44
TORSDOF 12
