REMARK  Name = 
REMARK  4 active torsions:
REMARK  status: ('A' for Active; 'I' for Inactive)
REMARK    1  A    between atoms: C_6  and  C_7
REMARK    2  A    between atoms: C_7  and  O_8
REMARK    3  A    between atoms: C_12  and  C_13
REMARK    4  A    between atoms: C_13  and  O_14
REMARK                            x       y       z     vdW  Elec       q    Type
REMARK                         _______ _______ _______ _____ _____    ______ ____
ROOT
ATOM      1  C   UNL     1      -1.741  -0.551   0.110  0.00  0.00    +0.274 C 
ATOM      2  C   UNL     1      -2.127  -1.772  -0.537  0.00  0.00    +0.161 C 
ATOM      3  C   UNL     1      -1.801  -1.113  -1.841  0.00  0.00    +0.224 C 
ATOM      4  O   UNL     1      -1.863  -1.450  -3.052  0.00  0.00    -0.275 OA
ATOM      5  N   UNL     1      -1.290   0.067  -1.105  0.00  0.00    -0.245 N 
ATOM      6  C   UNL     1       0.019   0.673  -1.054  0.00  0.00    +0.253 C 
ATOM      7  C   UNL     1       0.474   0.120   0.264  0.00  0.00    +0.130 C 
ATOM      8  O   UNL     1      -0.549  -0.613   0.888  0.00  0.00    -0.472 OA
ATOM      9  C   UNL     1       1.695   0.277   0.780  0.00  0.00    +0.044 C 
ENDROOT
BRANCH   6  10
ATOM     10  C   UNL     1      -0.086   2.168  -1.026  0.00  0.00    +0.333 C 
ATOM     11  O   UNL     1      -0.913   2.737  -0.262  0.00  0.00    -0.248 OA
BRANCH  10  12
ATOM     12  O   UNL     1       0.753   2.932  -1.831  0.00  0.00    -0.479 OA
ATOM     13  H   UNL     1       0.705   3.943  -1.819  0.00  0.00    +0.295 HD
ENDBRANCH  10  12
ENDBRANCH   6  10
BRANCH   9  14
ATOM     14  C   UNL     1       2.073  -0.311   2.103  0.00  0.00    +0.186 C 
BRANCH  14  15
ATOM     15  O   UNL     1       2.039  -1.709   2.026  0.00  0.00    -0.391 OA
ATOM     16  H   UNL     1       2.283  -2.040   2.930  0.00  0.00    +0.210 HD
ENDBRANCH  14  15
ENDBRANCH   9  14
TORSDOF 4
