REMARK  Name = 
REMARK  8 active torsions:
REMARK  status: ('A' for Active; 'I' for Inactive)
REMARK    1  A    between atoms: C_1  and  N_2
REMARK    2  A    between atoms: C_6  and  C_7
REMARK    3  A    between atoms: C_7  and  C_8
REMARK    4  A    between atoms: C_8  and  O_9
REMARK    5  A    between atoms: O_9  and  C_10
REMARK    6  A    between atoms: C_10  and  C_11
REMARK    7  A    between atoms: C_10  and  C_12
REMARK    8  A    between atoms: C_10  and  C_18
REMARK                            x       y       z     vdW  Elec       q    Type
REMARK                         _______ _______ _______ _____ _____    ______ ____
ROOT
ATOM      1  C   UNL     1      -1.631  -0.053   0.823  0.00  0.00    +0.116 C 
ATOM      2  C   UNL     1      -2.367  -0.308   2.165  0.00  0.00    +0.052 C 
ENDROOT
BRANCH   1   3
ATOM      3  C   UNL     1      -2.150   1.289   0.292  0.00  0.00    -0.012 A 
ATOM      4  C   UNL     1      -1.388   2.473   0.413  0.00  0.00    +0.008 A 
ATOM      5  C   UNL     1      -1.885   3.693  -0.053  0.00  0.00    +0.020 A 
ATOM      6  C   UNL     1      -3.154   3.761  -0.632  0.00  0.00    +0.041 A 
ATOM      7 CL   UNL     1      -3.773   5.295  -1.214  0.00  0.00    -0.084 Cl
ATOM      8  C   UNL     1      -3.932   2.607  -0.737  0.00  0.00    +0.020 A 
ATOM      9  C   UNL     1      -3.441   1.384  -0.273  0.00  0.00    +0.008 A 
ENDBRANCH   1   3
BRANCH   1  10
ATOM     10  C   UNL     1      -1.897  -1.124  -0.254  0.00  0.00    -0.012 A 
ATOM     11  C   UNL     1      -1.196  -1.048  -1.474  0.00  0.00    +0.007 A 
ATOM     12  C   UNL     1      -1.407  -1.992  -2.482  0.00  0.00    +0.000 A 
ATOM     13  C   UNL     1      -2.329  -3.021  -2.295  0.00  0.00    +0.000 A 
ATOM     14  C   UNL     1      -3.046  -3.105  -1.101  0.00  0.00    +0.000 A 
ATOM     15  C   UNL     1      -2.839  -2.165  -0.087  0.00  0.00    +0.007 A 
ENDBRANCH   1  10
BRANCH   1  16
ATOM     16  O   UNL     1      -0.224   0.076   1.051  0.00  0.00    -0.364 OA
BRANCH  16  17
ATOM     17  C   UNL     1       0.396  -1.097   1.551  0.00  0.00    +0.163 C 
BRANCH  17  18
ATOM     18  C   UNL     1       1.917  -0.913   1.577  0.00  0.00    +0.047 C 
BRANCH  18  24
ATOM     19  C   UNL     1       4.752  -0.439   1.239  0.00  0.00    +0.105 C 
ATOM     20  N   UNL     1       3.972  -0.905   0.072  0.00  0.00    -0.302 NA
ATOM     21  C   UNL     1       4.383  -0.158  -1.127  0.00  0.00    +0.084 C 
ATOM     22  C   UNL     1       3.490   1.076  -1.238  0.00  0.00    +0.017 C 
ATOM     23  C   UNL     1       2.322   0.817  -0.300  0.00  0.00    +0.020 C 
ATOM     24  C   UNL     1       2.524  -0.622   0.179  0.00  0.00    +0.059 C 
ENDBRANCH  18  24
ENDBRANCH  17  18
ENDBRANCH  16  17
ENDBRANCH   1  16
TORSDOF 6
