REMARK  Name = 
REMARK  9 active torsions:
REMARK  status: ('A' for Active; 'I' for Inactive)
REMARK    1  A    between atoms: C_1  and  C_2
REMARK    2  A    between atoms: C_2  and  C_3
REMARK    3  A    between atoms: C_2  and  C_4
REMARK    4  A    between atoms: C_2  and  N_5
REMARK    5  A    between atoms: N_5  and  C_6
REMARK    6  A    between atoms: C_6  and  C_7
REMARK    7  A    between atoms: C_7  and  O_8
REMARK    8  A    between atoms: C_7  and  C_9
REMARK    9  A    between atoms: C_13  and  N_14
REMARK                            x       y       z     vdW  Elec       q    Type
REMARK                         _______ _______ _______ _____ _____    ______ ____
ROOT
ATOM      1  C   UNL     1       1.511   0.105  -1.189  0.00  0.00    -0.015 A 
ATOM      2  C   UNL     1       1.948   1.082  -0.277  0.00  0.00    +0.028 A 
ATOM      3  C   UNL     1       3.147   0.922   0.426  0.00  0.00    +0.063 A 
ATOM      4 CL   UNL     1       3.620   2.196   1.546  0.00  0.00    -0.082 Cl
ATOM      5  C   UNL     1       3.930  -0.237   0.229  0.00  0.00    +0.062 A 
ATOM      6  C   UNL     1       3.486  -1.220  -0.669  0.00  0.00    +0.063 A 
ATOM      7 CL   UNL     1       4.423  -2.686  -0.934  0.00  0.00    -0.082 Cl
ATOM      8  C   UNL     1       2.286  -1.052  -1.365  0.00  0.00    +0.028 A 
ENDROOT
BRANCH   5   9
ATOM      9  N   UNL     1       5.166  -0.444   0.925  0.00  0.00    -0.356 N 
ATOM     10  H   UNL     1       5.554   0.246   1.605  0.00  0.00    +0.142 HD
ATOM     11  H   UNL     1       5.554   0.246   1.605  0.00  0.00    +0.142 HD
ENDBRANCH   5   9
BRANCH   1  12
ATOM     12  C   UNL     1       0.191   0.238  -1.925  0.00  0.00    +0.158 C 
BRANCH  12  13
ATOM     13  O   UNL     1      -0.078   1.576  -2.273  0.00  0.00    -0.386 OA
ATOM     14  H   UNL     1      -0.474   2.036  -1.488  0.00  0.00    +0.210 HD
ENDBRANCH  12  13
BRANCH  12  15
ATOM     15  C   UNL     1      -0.976  -0.408  -1.148  0.00  0.00    +0.117 C 
BRANCH  15  16
ATOM     16  N   UNL     1      -1.136   0.208   0.182  0.00  0.00    -0.309 NA
ATOM     17  H   UNL     1      -0.398  -0.201   0.804  0.00  0.00    +0.123 HD
BRANCH  16  19
ATOM     18  C   UNL     1      -3.547   0.821   0.085  0.00  0.00    +0.027 C 
ATOM     19  C   UNL     1      -2.461   0.005   0.821  0.00  0.00    +0.011 C 
ATOM     20  C   UNL     1      -2.378   0.531   2.270  0.00  0.00    +0.027 C 
ATOM     21  C   UNL     1      -2.856  -1.489   0.865  0.00  0.00    +0.027 C 
ENDBRANCH  16  19
ENDBRANCH  15  16
ENDBRANCH  12  15
ENDBRANCH   1  12
TORSDOF 6
