REMARK  Name = 
REMARK  14 active torsions:
REMARK  status: ('A' for Active; 'I' for Inactive)
REMARK    1  A    between atoms: C_1  and  C_2
REMARK    2  A    between atoms: C_2  and  C_3
REMARK    3  A    between atoms: C_3  and  C_4
REMARK    4  A    between atoms: C_4  and  O_6
REMARK    5  A    between atoms: O_6  and  C_7
REMARK    6  A    between atoms: C_7  and  O_8
REMARK    7  A    between atoms: O_8  and  C_9
REMARK    8  A    between atoms: C_9  and  C_11
REMARK    9  A    between atoms: C_12  and  C_13
REMARK   10  A    between atoms: C_15  and  C_16
REMARK   11  A    between atoms: C_17  and  C_27
REMARK   12  A    between atoms: C_18  and  C_19
REMARK   13  A    between atoms: C_27  and  O_29
REMARK   14  A    between atoms: O_29  and  C_30
REMARK                            x       y       z     vdW  Elec       q    Type
REMARK                         _______ _______ _______ _____ _____    ______ ____
ROOT
ATOM      1  C   UNL     1      -0.567   1.404  -0.354  0.00  0.00    +0.065 C 
ATOM      2  C   UNL     1      -0.879   2.213  -1.385  0.00  0.00    +0.016 C 
ATOM      3  C   UNL     1       0.077   3.264  -1.894  0.00  0.00    +0.061 C 
ATOM      4  N   UNL     1      -2.139   2.071  -2.050  0.00  0.00    -0.321 N 
ATOM      5  C   UNL     1      -3.124   1.111  -1.651  0.00  0.00    +0.016 C 
ATOM      6  C   UNL     1      -4.404   1.026  -2.444  0.00  0.00    +0.061 C 
ATOM      7  C   UNL     1      -2.873   0.283  -0.617  0.00  0.00    +0.065 C 
ATOM      8  C   UNL     1      -1.550   0.345   0.134  0.00  0.00    +0.097 C 
ATOM      9  H   UNL     1      -2.353   2.703  -2.856  0.00  0.00    +0.152 HD
ENDROOT
BRANCH   8  10
ATOM     10  C   UNL     1      -1.792   0.476   1.637  0.00  0.00    -0.015 A 
ATOM     11  C   UNL     1      -2.353   1.674   2.127  0.00  0.00    +0.006 A 
ATOM     12  C   UNL     1      -2.631   1.824   3.486  0.00  0.00    +0.002 A 
ATOM     13  C   UNL     1      -2.341   0.789   4.379  0.00  0.00    +0.021 A 
ATOM     14  C   UNL     1      -1.755  -0.395   3.921  0.00  0.00    +0.060 A 
ATOM     15 CL   UNL     1      -1.383  -1.653   5.094  0.00  0.00    -0.082 Cl
ATOM     16  C   UNL     1      -1.486  -0.569   2.548  0.00  0.00    +0.063 A 
ATOM     17 CL   UNL     1      -0.778  -2.095   2.002  0.00  0.00    -0.082 Cl
ENDBRANCH   8  10
BRANCH   1  18
ATOM     18  C   UNL     1       0.802   1.381   0.217  0.00  0.00    +0.340 C 
ATOM     19  O   UNL     1       0.963   1.384   1.468  0.00  0.00    -0.245 OA
BRANCH  18  20
ATOM     20  O   UNL     1       1.906   1.328  -0.637  0.00  0.00    -0.424 OA
BRANCH  20  21
ATOM     21  C   UNL     1       3.235   1.103  -0.180  0.00  0.00    +0.473 C 
BRANCH  21  22
ATOM     22  O   UNL     1       3.456  -0.301  -0.068  0.00  0.00    -0.427 OA
BRANCH  22  23
ATOM     23  C   UNL     1       4.599  -0.842   0.528  0.00  0.00    +0.310 C 
ATOM     24  O   UNL     1       5.403  -0.099   1.163  0.00  0.00    -0.251 OA
BRANCH  23  25
ATOM     25  C   UNL     1       4.813  -2.328   0.485  0.00  0.00    +0.120 C 
BRANCH  25  27
ATOM     26  C   UNL     1       6.861  -2.283  -1.036  0.00  0.00    +0.004 C 
ATOM     27  C   UNL     1       6.291  -2.715   0.317  0.00  0.00    +0.008 C 
ENDBRANCH  25  27
ENDBRANCH  23  25
ENDBRANCH  22  23
ENDBRANCH  21  22
ENDBRANCH  20  21
ENDBRANCH  18  20
ENDBRANCH   1  18
BRANCH   7  28
ATOM     28  C   UNL     1      -3.834  -0.780  -0.252  0.00  0.00    +0.337 C 
ATOM     29  O   UNL     1      -4.282  -0.836   0.925  0.00  0.00    -0.245 OA
BRANCH  28  30
ATOM     30  O   UNL     1      -4.239  -1.721  -1.205  0.00  0.00    -0.465 OA
ATOM     31  C   UNL     1      -5.166  -2.758  -0.908  0.00  0.00    +0.280 C 
ENDBRANCH  28  30
ENDBRANCH   7  28
TORSDOF 10
