REMARK  Name = 
REMARK  7 active torsions:
REMARK  status: ('A' for Active; 'I' for Inactive)
REMARK    1  A    between atoms: C_1  and  N_2
REMARK    2  A    between atoms: C_8  and  O_10
REMARK    3  A    between atoms: O_10  and  C_11
REMARK    4  A    between atoms: C_11  and  C_13
REMARK    5  A    between atoms: C_13  and  O_14
REMARK    6  A    between atoms: C_13  and  C_15
REMARK    7  A    between atoms: C_13  and  C_21
REMARK                            x       y       z     vdW  Elec       q    Type
REMARK                         _______ _______ _______ _____ _____    ______ ____
ROOT
ATOM      1  C   UNL     1      -1.794   0.698   0.741  0.00  0.00    +0.213 C 
ENDROOT
BRANCH   1   2
ATOM      2  C   UNL     1      -2.235  -0.754   0.565  0.00  0.00    -0.001 A 
ATOM      3  C   UNL     1      -2.136  -1.406  -0.685  0.00  0.00    +0.007 A 
ATOM      4  C   UNL     1      -2.613  -2.710  -0.849  0.00  0.00    +0.000 A 
ATOM      5  C   UNL     1      -3.223  -3.373   0.218  0.00  0.00    +0.000 A 
ATOM      6  C   UNL     1      -3.364  -2.731   1.449  0.00  0.00    +0.000 A 
ATOM      7  C   UNL     1      -2.881  -1.430   1.622  0.00  0.00    +0.007 A 
ENDBRANCH   1   2
BRANCH   1   8
ATOM      8  C   UNL     1      -2.985   1.584   0.354  0.00  0.00    -0.001 A 
ATOM      9  C   UNL     1      -3.834   2.130   1.341  0.00  0.00    +0.007 A 
ATOM     10  C   UNL     1      -4.951   2.889   0.979  0.00  0.00    +0.000 A 
ATOM     11  C   UNL     1      -5.252   3.096  -0.368  0.00  0.00    +0.000 A 
ATOM     12  C   UNL     1      -4.444   2.536  -1.358  0.00  0.00    +0.000 A 
ATOM     13  C   UNL     1      -3.325   1.776  -1.004  0.00  0.00    +0.007 A 
ENDBRANCH   1   8
BRANCH   1  14
ATOM     14  C   UNL     1      -0.554   1.004  -0.086  0.00  0.00    +0.349 C 
ATOM     15  O   UNL     1      -0.387   2.151  -0.586  0.00  0.00    -0.247 OA
BRANCH  14  16
ATOM     16  O   UNL     1       0.460   0.041  -0.174  0.00  0.00    -0.460 OA
BRANCH  16  24
ATOM     17  C   UNL     1       4.401  -2.439  -0.655  0.00  0.00    -0.092 C 
ATOM     18  N   UNL     1       3.756  -1.126  -0.436  0.00  0.00    +0.381 N 
ATOM     19  C   UNL     1       3.608  -0.876   1.028  0.00  0.00    -0.075 C 
ATOM     20  C   UNL     1       2.955   0.504   1.295  0.00  0.00    -0.011 C 
ATOM     21  C   UNL     1       2.626   1.181  -0.049  0.00  0.00    +0.025 C 
ATOM     22  C   UNL     1       3.941   1.343  -0.834  0.00  0.00    -0.011 C 
ATOM     23  C   UNL     1       4.594  -0.048  -1.038  0.00  0.00    -0.075 C 
ATOM     24  C   UNL     1       1.696   0.250  -0.862  0.00  0.00    +0.164 C 
ATOM     25  C   UNL     1       2.408  -1.115  -1.075  0.00  0.00    -0.030 C 
ENDBRANCH  16  24
ENDBRANCH  14  16
ENDBRANCH   1  14
BRANCH   1  26
ATOM     26  O   UNL     1      -1.439   0.902   2.091  0.00  0.00    -0.370 OA
ATOM     27  H   UNL     1      -1.163   1.852   2.198  0.00  0.00    +0.212 HD
ENDBRANCH   1  26
TORSDOF 6
