REMARK  Name = 
REMARK  14 active torsions:
REMARK  status: ('A' for Active; 'I' for Inactive)
REMARK    1  A    between atoms: C_1  and  C_2
REMARK    2  A    between atoms: C_2  and  C_3
REMARK    3  A    between atoms: C_3  and  C_4
REMARK    4  A    between atoms: C_6  and  C_10
REMARK    5  A    between atoms: N_7  and  C_8
REMARK    6  A    between atoms: N_12  and  C_13
REMARK    7  A    between atoms: C_13  and  C_14
REMARK    8  A    between atoms: C_13  and  C_17
REMARK    9  A    between atoms: C_14  and  C_15
REMARK   10  A    between atoms: C_19  and  S_20
REMARK   11  A    between atoms: S_20  and  C_21
REMARK   12  A    between atoms: C_22  and  O_23
REMARK   13  A    between atoms: C_24  and  O_25
REMARK   14  A    between atoms: C_26  and  O_27
REMARK                            x       y       z     vdW  Elec       q    Type
REMARK                         _______ _______ _______ _____ _____    ______ ____
ROOT
ATOM      1  C   UNL     1      -1.719  -0.921  -1.084  0.00  0.00    +0.122 C 
ENDROOT
BRANCH   1   2
ATOM      2  C   UNL     1      -2.739  -1.342   0.018  0.00  0.00    +0.172 C 
ATOM      3  O   UNL     1      -2.719  -0.395   1.089  0.00  0.00    -0.356 OA
ATOM      4  C   UNL     1      -3.756   0.561   0.987  0.00  0.00    +0.207 C 
ATOM      5  C   UNL     1      -5.127  -0.111   1.257  0.00  0.00    +0.184 C 
ATOM      6  C   UNL     1      -5.166  -1.542   0.665  0.00  0.00    +0.177 C 
ATOM      7  C   UNL     1      -4.176  -1.678  -0.502  0.00  0.00    +0.176 C 
BRANCH   4   8
ATOM      8  S   UNL     1      -3.440   1.933   2.159  0.00  0.00    -0.131 S 
ATOM      9  C   UNL     1      -1.954   2.556   1.307  0.00  0.00    +0.087 C 
ENDBRANCH   4   8
BRANCH   5  10
ATOM     10  O   UNL     1      -5.382  -0.195   2.639  0.00  0.00    -0.386 OA
ATOM     11  H   UNL     1      -5.952   0.580   2.882  0.00  0.00    +0.210 HD
ENDBRANCH   5  10
BRANCH   6  12
ATOM     12  O   UNL     1      -6.463  -1.860   0.232  0.00  0.00    -0.386 OA
ATOM     13  H   UNL     1      -7.010  -2.001   1.048  0.00  0.00    +0.210 HD
ENDBRANCH   6  12
BRANCH   7  14
ATOM     14  O   UNL     1      -4.554  -0.811  -1.544  0.00  0.00    -0.387 OA
ATOM     15  H   UNL     1      -5.293  -1.253  -2.038  0.00  0.00    +0.210 HD
ENDBRANCH   7  14
ENDBRANCH   1   2
BRANCH   1  18
ATOM     16  C   UNL     1       0.295   0.635  -0.896  0.00  0.00    +0.231 C 
ATOM     17  O   UNL     1      -0.177   1.393  -1.785  0.00  0.00    -0.274 OA
ATOM     18  N   UNL     1      -0.469  -0.496  -0.440  0.00  0.00    -0.307 N 
ATOM     19  H   UNL     1      -0.073  -1.121   0.297  0.00  0.00    +0.149 HD
BRANCH  16  22
ATOM     20  C   UNL     1       4.005   0.637  -0.710  0.00  0.00    +0.005 C 
ATOM     21  C   UNL     1       2.711   1.000  -1.419  0.00  0.00    +0.033 C 
ATOM     22  C   UNL     1       1.656   0.961  -0.322  0.00  0.00    +0.143 C 
ATOM     23  N   UNL     1       2.104  -0.043   0.660  0.00  0.00    -0.294 NA
ATOM     24  C   UNL     1       1.841   0.390   2.042  0.00  0.00    +0.105 C 
ATOM     25  C   UNL     1       3.540  -0.280   0.427  0.00  0.00    +0.088 C 
BRANCH  20  26
ATOM     26  C   UNL     1       4.737   1.901  -0.189  0.00  0.00    +0.004 C 
BRANCH  26  28
ATOM     27  C   UNL     1       7.153   1.419  -0.866  0.00  0.00    +0.004 C 
ATOM     28  C   UNL     1       6.175   1.627   0.291  0.00  0.00    -0.003 C 
ENDBRANCH  26  28
ENDBRANCH  20  26
ENDBRANCH  16  22
ENDBRANCH   1  18
BRANCH   1  29
ATOM     29  C   UNL     1      -1.379  -2.007  -2.147  0.00  0.00    +0.100 C 
ATOM     30  C   UNL     1      -1.038  -3.381  -1.563  0.00  0.00    +0.026 C 
ATOM     31 CL   UNL     1      -2.651  -2.181  -3.389  0.00  0.00    -0.120 Cl
ENDBRANCH   1  29
TORSDOF 10
