REMARK  Name = 
REMARK  7 active torsions:
REMARK  status: ('A' for Active; 'I' for Inactive)
REMARK    1  A    between atoms: C_3  and  C_4
REMARK    2  A    between atoms: C_5  and  O_6
REMARK    3  A    between atoms: C_5  and  C_7
REMARK    4  A    between atoms: C_7  and  C_9
REMARK    5  A    between atoms: C_11  and  C_12
REMARK    6  A    between atoms: C_14  and  O_15
REMARK    7  A    between atoms: C_27  and  C_28
REMARK                            x       y       z     vdW  Elec       q    Type
REMARK                         _______ _______ _______ _____ _____    ______ ____
ROOT
ATOM      1  C   UNL     1       0.814  -0.126  -0.686  0.00  0.00    +0.005 C 
ATOM      2  C   UNL     1       1.889  -0.973  -1.348  0.00  0.00    +0.011 C 
ATOM      3  C   UNL     1       3.213  -0.290  -0.931  0.00  0.00    +0.026 C 
ATOM      4  C   UNL     1       4.317  -1.334  -0.669  0.00  0.00    +0.011 C 
ATOM      5  C   UNL     1       2.859   0.699   0.249  0.00  0.00    +0.133 C 
ATOM      6  C   UNL     1       1.412   0.231   0.687  0.00  0.00    +0.010 C 
ATOM      7  C   UNL     1       1.479  -1.009   1.649  0.00  0.00    +0.015 C 
ATOM      8  C   UNL     1       0.507   1.328   1.317  0.00  0.00    +0.044 C 
ATOM      9  C   UNL     1      -0.983   0.893   1.420  0.00  0.00    +0.154 C 
ATOM     10  C   UNL     1      -1.565   0.418   0.038  0.00  0.00    +0.153 C 
ATOM     11  F   UNL     1      -1.534   1.542  -0.783  0.00  0.00    -0.238 F 
ATOM     12  C   UNL     1      -0.639  -0.666  -0.632  0.00  0.00    +0.034 C 
ATOM     13  C   UNL     1      -1.138  -1.008  -2.054  0.00  0.00    +0.011 C 
ATOM     14  C   UNL     1      -2.586  -1.495  -2.039  0.00  0.00    +0.032 C 
ATOM     15  C   UNL     1      -3.462  -0.478  -1.350  0.00  0.00    -0.053 C 
ATOM     16  C   UNL     1      -4.543  -0.001  -1.988  0.00  0.00    +0.051 C 
ATOM     17  C   UNL     1      -5.383   1.027  -1.375  0.00  0.00    +0.179 C 
ATOM     18  O   UNL     1      -6.405   1.451  -1.975  0.00  0.00    -0.288 OA
ATOM     19  C   UNL     1      -5.019   1.571  -0.070  0.00  0.00    +0.047 C 
ATOM     20  C   UNL     1      -3.954   1.107   0.585  0.00  0.00    -0.009 C 
ATOM     21  C   UNL     1      -3.081  -0.043   0.076  0.00  0.00    +0.044 C 
ATOM     22  C   UNL     1      -3.355  -1.246   1.014  0.00  0.00    +0.023 C 
ENDROOT
BRANCH   5  23
ATOM     23  O   UNL     1       2.772   1.990  -0.325  0.00  0.00    -0.380 OA
ATOM     24  H   UNL     1       2.732   2.664   0.404  0.00  0.00    +0.211 HD
ENDBRANCH   5  23
BRANCH   5  25
ATOM     25  C   UNL     1       3.939   0.756   1.346  0.00  0.00    +0.180 C 
ATOM     26  O   UNL     1       3.694   0.439   2.498  0.00  0.00    -0.293 OA
BRANCH  25  27
ATOM     27  C   UNL     1       5.309   1.296   1.037  0.00  0.00    +0.186 C 
ATOM     28 CL   UNL     1       5.594   2.797   1.953  0.00  0.00    -0.117 Cl
ENDBRANCH  25  27
ENDBRANCH   5  25
BRANCH   9  29
ATOM     29  O   UNL     1      -1.133  -0.092   2.407  0.00  0.00    -0.389 OA
ATOM     30  H   UNL     1      -1.030   0.358   3.286  0.00  0.00    +0.210 HD
ENDBRANCH   9  29
TORSDOF 4
