REMARK  Name = 
REMARK  2 active torsions:
REMARK  status: ('A' for Active; 'I' for Inactive)
REMARK    1  A    between atoms: C_1  and  N_2
REMARK    2  A    between atoms: N_10  and  C_11
REMARK                            x       y       z     vdW  Elec       q    Type
REMARK                         _______ _______ _______ _____ _____    ______ ____
ROOT
ATOM      1  C   UNL     1      -3.004  -1.534  -1.257  0.00  0.00    +0.138 C 
ATOM      2  N   UNL     1      -2.272  -0.966  -0.121  0.00  0.00    -0.272 N 
ATOM      3  C   UNL     1      -1.778   0.388  -0.198  0.00  0.00    +0.058 A 
ATOM      4  C   UNL     1      -0.457   0.721   0.203  0.00  0.00    +0.064 A 
ATOM      5  C   UNL     1      -0.024   2.055   0.092  0.00  0.00    +0.045 A 
ATOM      6  C   UNL     1      -0.875   3.046  -0.401  0.00  0.00    +0.043 A 
ATOM      7 CL   UNL     1      -0.313   4.703  -0.527  0.00  0.00    -0.083 Cl
ATOM      8  C   UNL     1      -2.172   2.717  -0.793  0.00  0.00    +0.022 A 
ATOM      9  C   UNL     1      -2.620   1.400  -0.694  0.00  0.00    +0.027 A 
ATOM     10  N   UNL     1       0.466  -0.280   0.689  0.00  0.00    -0.238 N 
ATOM     11  C   UNL     1       0.072  -1.233   1.701  0.00  0.00    +0.233 C 
ATOM     12  O   UNL     1       0.887  -2.107   2.105  0.00  0.00    -0.274 OA
ATOM     13  C   UNL     1      -1.326  -1.254   2.230  0.00  0.00    +0.192 C 
ATOM     14  C   UNL     1      -2.236  -1.687   1.126  0.00  0.00    +0.228 C 
ATOM     15  O   UNL     1      -2.958  -2.708   1.291  0.00  0.00    -0.275 OA
ENDROOT
BRANCH  10  16
ATOM     16  C   UNL     1       1.812  -0.293   0.171  0.00  0.00    +0.041 A 
ATOM     17  C   UNL     1       2.032  -0.320  -1.216  0.00  0.00    +0.024 A 
ATOM     18  C   UNL     1       3.334  -0.311  -1.725  0.00  0.00    +0.002 A 
ATOM     19  C   UNL     1       4.426  -0.268  -0.854  0.00  0.00    +0.000 A 
ATOM     20  C   UNL     1       4.217  -0.230   0.528  0.00  0.00    +0.002 A 
ATOM     21  C   UNL     1       2.916  -0.239   1.040  0.00  0.00    +0.024 A 
ENDBRANCH  10  16
TORSDOF 1
