REMARK  Name = 
REMARK  7 active torsions:
REMARK  status: ('A' for Active; 'I' for Inactive)
REMARK    1  A    between atoms: C_3  and  C_4
REMARK    2  A    between atoms: C_5  and  C_6
REMARK    3  A    between atoms: C_6  and  C_8
REMARK    4  A    between atoms: C_8  and  O_9
REMARK    5  A    between atoms: C_10  and  C_11
REMARK    6  A    between atoms: C_13  and  O_14
REMARK    7  A    between atoms: C_27  and  C_28
REMARK                            x       y       z     vdW  Elec       q    Type
REMARK                         _______ _______ _______ _____ _____    ______ ____
ROOT
ATOM      1  C   UNL     1       0.788  -0.765  -0.366  0.00  0.00    +0.001 C 
ATOM      2  C   UNL     1       1.690  -1.994  -0.407  0.00  0.00    +0.008 C 
ATOM      3  C   UNL     1       3.123  -1.404  -0.351  0.00  0.00    -0.003 C 
ATOM      4  C   UNL     1       3.891  -1.634  -1.658  0.00  0.00    +0.008 C 
ATOM      5  C   UNL     1       2.948   0.116  -0.043  0.00  0.00    +0.067 C 
ATOM      6  C   UNL     1       1.522   0.216   0.558  0.00  0.00    -0.017 C 
ATOM      7  C   UNL     1       1.561  -0.235   2.059  0.00  0.00    +0.012 C 
ATOM      8  C   UNL     1       0.869   1.615   0.404  0.00  0.00    +0.040 C 
ATOM      9  C   UNL     1      -0.678   1.619   0.601  0.00  0.00    +0.137 C 
ATOM     10  C   UNL     1      -1.441   0.483  -0.202  0.00  0.00    +0.087 C 
ATOM     11 CL   UNL     1      -1.323   0.994  -1.946  0.00  0.00    -0.114 Cl
ATOM     12  C   UNL     1      -0.720  -0.916  -0.039  0.00  0.00    +0.020 C 
ATOM     13  C   UNL     1      -1.371  -1.995  -0.935  0.00  0.00    +0.047 C 
ATOM     14  C   UNL     1      -2.872  -2.133  -0.670  0.00  0.00    +0.193 C 
ATOM     15  F   UNL     1      -3.395  -3.048  -1.571  0.00  0.00    -0.241 F 
ATOM     16  C   UNL     1      -3.556  -0.782  -0.763  0.00  0.00    -0.021 C 
ATOM     17  C   UNL     1      -4.652  -0.625  -1.528  0.00  0.00    +0.054 C 
ATOM     18  C   UNL     1      -5.314   0.675  -1.641  0.00  0.00    +0.179 C 
ATOM     19  O   UNL     1      -6.348   0.799  -2.349  0.00  0.00    -0.288 OA
ATOM     20  C   UNL     1      -4.760   1.832  -0.944  0.00  0.00    +0.047 C 
ATOM     21  C   UNL     1      -3.685   1.703  -0.167  0.00  0.00    -0.010 C 
ATOM     22  C   UNL     1      -3.000   0.362   0.110  0.00  0.00    +0.032 C 
ATOM     23  C   UNL     1      -3.353   0.007   1.578  0.00  0.00    +0.022 C 
ENDROOT
BRANCH   5  24
ATOM     24  C   UNL     1       4.049   0.718   0.816  0.00  0.00    +0.162 C 
ATOM     25  O   UNL     1       4.597   0.052   1.682  0.00  0.00    -0.295 OA
BRANCH  24  26
ATOM     26  C   UNL     1       4.461   2.150   0.636  0.00  0.00    +0.230 C 
BRANCH  26  27
ATOM     27  O   UNL     1       5.795   2.201   0.218  0.00  0.00    -0.388 OA
ATOM     28  H   UNL     1       6.021   3.164   0.133  0.00  0.00    +0.210 HD
ENDBRANCH  26  27
ENDBRANCH  24  26
ENDBRANCH   5  24
BRANCH   9  29
ATOM     29  O   UNL     1      -0.996   1.682   1.966  0.00  0.00    -0.390 OA
ATOM     30  H   UNL     1      -0.933   0.775   2.341  0.00  0.00    +0.210 HD
ENDBRANCH   9  29
TORSDOF 4
