REMARK  Name = 
REMARK  6 active torsions:
REMARK  status: ('A' for Active; 'I' for Inactive)
REMARK    1  A    between atoms: O_1  and  P_2
REMARK    2  A    between atoms: P_2  and  O_3
REMARK    3  A    between atoms: P_2  and  C_5
REMARK    4  A    between atoms: C_5  and  P_8
REMARK    5  A    between atoms: P_8  and  O_9
REMARK    6  A    between atoms: P_8  and  O_10
REMARK                            x       y       z     vdW  Elec       q    Type
REMARK                         _______ _______ _______ _____ _____    ______ ____
ROOT
ATOM      1  C   UNL     1      -0.030  -0.655  -0.362  0.00  0.00    +0.317 C 
ATOM      2 CL   UNL     1       0.292  -1.019  -2.075  0.00  0.00    -0.075 Cl
ATOM      3 CL   UNL     1      -0.327  -2.182   0.503  0.00  0.00    -0.075 Cl
ENDROOT
BRANCH   1   4
ATOM      4  P   UNL     1       1.422   0.180   0.355  0.00  0.00    +0.375 P 
ATOM      5  O   UNL     1       1.193   0.441   1.827  0.00  0.00    -0.255 OA
BRANCH   4   6
ATOM      6  O   UNL     1       1.679   1.652  -0.440  0.00  0.00    -0.322 OA
ATOM      7  H   UNL     1       2.515   2.009  -0.047  0.00  0.00    +0.220 HD
ENDBRANCH   4   6
BRANCH   4   8
ATOM      8  O   UNL     1       2.793  -0.795   0.164  0.00  0.00    -0.322 OA
ATOM      9  H   UNL     1       2.632  -1.581   0.746  0.00  0.00    +0.220 HD
ENDBRANCH   4   8
ENDBRANCH   1   4
BRANCH   1  10
ATOM     10  P   UNL     1      -1.505   0.411  -0.233  0.00  0.00    +0.375 P 
ATOM     11  O   UNL     1      -1.301   1.670  -1.045  0.00  0.00    -0.255 OA
BRANCH  10  12
ATOM     12  O   UNL     1      -1.772   0.834   1.384  0.00  0.00    -0.322 OA
ATOM     13  H   UNL     1      -2.041  -0.010   1.826  0.00  0.00    +0.220 HD
ENDBRANCH  10  12
BRANCH  10  14
ATOM     14  O   UNL     1      -2.861  -0.417  -0.818  0.00  0.00    -0.322 OA
ATOM     15  H   UNL     1      -2.690  -0.538  -1.786  0.00  0.00    +0.220 HD
ENDBRANCH  10  14
ENDBRANCH   1  10
TORSDOF 6
