REMARK  Name = 
REMARK  5 active torsions:
REMARK  status: ('A' for Active; 'I' for Inactive)
REMARK    1  A    between atoms: C_3  and  O_4
REMARK    2  A    between atoms: C_5  and  C_6
REMARK    3  A    between atoms: C_6  and  O_7
REMARK    4  A    between atoms: C_9  and  N_10
REMARK    5  A    between atoms: C_14  and  N_15
REMARK                            x       y       z     vdW  Elec       q    Type
REMARK                         _______ _______ _______ _____ _____    ______ ____
ROOT
ATOM      1  N   UNL     1       0.534   0.246  -0.266  0.00  0.00    -0.285 N 
ATOM      2  C   UNL     1       0.473   0.949   0.896  0.00  0.00    +0.203 A 
ATOM      3  N   UNL     1       1.697   1.303   1.377  0.00  0.00    -0.231 NA
ATOM      4  C   UNL     1       2.538   0.779   0.465  0.00  0.00    +0.147 A 
ATOM      5  C   UNL     1       3.927   0.795   0.431  0.00  0.00    +0.149 A 
ATOM      6  N   UNL     1       4.542   0.153  -0.608  0.00  0.00    -0.201 NA
ATOM      7  C   UNL     1       3.818  -0.487  -1.582  0.00  0.00    +0.226 A 
ATOM      8 CL   UNL     1       4.650  -1.299  -2.890  0.00  0.00    -0.041 Cl
ATOM      9  N   UNL     1       2.452  -0.498  -1.536  0.00  0.00    -0.198 NA
ATOM     10  C   UNL     1       1.846   0.145  -0.508  0.00  0.00    +0.169 A 
ENDROOT
BRANCH   1  16
ATOM     11  C   UNL     1      -0.984  -1.701  -0.403  0.00  0.00    +0.246 C 
ATOM     12  F   UNL     1      -0.022  -2.227   0.446  0.00  0.00    -0.238 F 
ATOM     13  C   UNL     1      -2.240  -1.362   0.343  0.00  0.00    +0.184 C 
ATOM     14  C   UNL     1      -2.775  -0.177  -0.453  0.00  0.00    +0.178 C 
ATOM     15  O   UNL     1      -1.680   0.514  -1.013  0.00  0.00    -0.345 OA
ATOM     16  C   UNL     1      -0.571  -0.362  -1.014  0.00  0.00    +0.259 C 
BRANCH  13  17
ATOM     17  O   UNL     1      -3.135  -2.444   0.325  0.00  0.00    -0.386 OA
ATOM     18  H   UNL     1      -3.839  -2.237   0.993  0.00  0.00    +0.210 HD
ENDBRANCH  13  17
BRANCH  14  19
ATOM     19  C   UNL     1      -3.604   0.772   0.422  0.00  0.00    +0.190 C 
BRANCH  19  20
ATOM     20  O   UNL     1      -4.148   1.804  -0.357  0.00  0.00    -0.392 OA
ATOM     21  H   UNL     1      -3.428   2.475  -0.484  0.00  0.00    +0.210 HD
ENDBRANCH  19  20
ENDBRANCH  14  19
ENDBRANCH   1  16
BRANCH   5  22
ATOM     22  N   UNL     1       4.698   1.449   1.439  0.00  0.00    -0.341 N 
ATOM     23  H   UNL     1       4.235   1.940   2.236  0.00  0.00    +0.144 HD
ATOM     24  H   UNL     1       5.741   1.443   1.389  0.00  0.00    +0.144 HD
ENDBRANCH   5  22
TORSDOF 5
