REMARK  Name = 
REMARK  6 active torsions:
REMARK  status: ('A' for Active; 'I' for Inactive)
REMARK    1  A    between atoms: C_1  and  C_2
REMARK    2  A    between atoms: C_2  and  C_3
REMARK    3  A    between atoms: C_2  and  N_4
REMARK    4  A    between atoms: N_8  and  C_9
REMARK    5  A    between atoms: C_25  and  N_26
REMARK    6  A    between atoms: N_26  and  C_27
REMARK                            x       y       z     vdW  Elec       q    Type
REMARK                         _______ _______ _______ _____ _____    ______ ____
ROOT
ATOM      1  N   UNL     1       1.903  -1.913  -0.281  0.00  0.00    -0.279 NA
ATOM      2  C   UNL     1       1.256  -0.778  -0.225  0.00  0.00    +0.082 A 
ATOM      3  C   UNL     1      -0.102  -0.675  -0.607  0.00  0.00    +0.057 A 
ATOM      4  C   UNL     1      -0.789   0.551  -0.524  0.00  0.00    +0.075 A 
ATOM      5  N   UNL     1      -2.113   0.699  -0.869  0.00  0.00    -0.306 N 
ATOM      6  C   UNL     1      -2.716   1.939  -0.774  0.00  0.00    +0.073 A 
ATOM      7  C   UNL     1      -1.968   3.061  -0.323  0.00  0.00    +0.088 A 
ATOM      8  C   UNL     1      -2.569   4.322  -0.227  0.00  0.00    +0.030 A 
ATOM      9  C   UNL     1      -3.910   4.491  -0.570  0.00  0.00    +0.002 A 
ATOM     10  C   UNL     1      -4.660   3.402  -1.011  0.00  0.00    +0.002 A 
ATOM     11  C   UNL     1      -4.076   2.137  -1.114  0.00  0.00    +0.028 A 
ATOM     12  N   UNL     1      -0.664   2.925   0.022  0.00  0.00    -0.244 NA
ATOM     13  C   UNL     1      -0.039   1.730  -0.051  0.00  0.00    +0.090 A 
ATOM     14  C   UNL     1       1.298   1.608   0.309  0.00  0.00    +0.055 A 
ATOM     15  C   UNL     1       1.945   0.364   0.242  0.00  0.00    +0.059 A 
ENDROOT
BRANCH   5  16
ATOM     16  C   UNL     1      -2.869  -0.442  -1.321  0.00  0.00    +0.047 A 
ATOM     17  C   UNL     1      -3.491  -1.288  -0.392  0.00  0.00    +0.027 A 
ATOM     18  C   UNL     1      -4.207  -2.405  -0.830  0.00  0.00    +0.022 A 
ATOM     19  C   UNL     1      -4.304  -2.683  -2.198  0.00  0.00    +0.041 A 
ATOM     20 CL   UNL     1      -5.201  -4.087  -2.747  0.00  0.00    -0.084 Cl
ATOM     21  C   UNL     1      -3.684  -1.841  -3.128  0.00  0.00    +0.022 A 
ATOM     22  C   UNL     1      -2.966  -0.724  -2.692  0.00  0.00    +0.027 A 
ENDBRANCH   5  16
BRANCH   1  24
ATOM     23  C   UNL     1       0.558  -3.855   0.415  0.00  0.00    +0.032 C 
ATOM     24  C   UNL     1       1.404  -3.226  -0.699  0.00  0.00    +0.100 C 
ATOM     25  C   UNL     1       2.597  -4.125  -1.022  0.00  0.00    +0.032 C 
ENDBRANCH   1  24
BRANCH  15  26
ATOM     26  N   UNL     1       3.338   0.265   0.598  0.00  0.00    -0.313 N 
ATOM     27  H   UNL     1       3.955  -0.338   0.008  0.00  0.00    +0.152 HD
BRANCH  26  28
ATOM     28  C   UNL     1       3.936   0.952   1.712  0.00  0.00    +0.031 A 
ATOM     29  C   UNL     1       3.184   1.294   2.851  0.00  0.00    +0.024 A 
ATOM     30  C   UNL     1       3.793   1.942   3.931  0.00  0.00    +0.022 A 
ATOM     31  C   UNL     1       5.158   2.241   3.889  0.00  0.00    +0.041 A 
ATOM     32 CL   UNL     1       5.921   3.051   5.245  0.00  0.00    -0.084 Cl
ATOM     33  C   UNL     1       5.916   1.886   2.769  0.00  0.00    +0.022 A 
ATOM     34  C   UNL     1       5.310   1.238   1.689  0.00  0.00    +0.024 A 
ENDBRANCH  26  28
ENDBRANCH  15  26
TORSDOF 4
