REMARK  Name = 
REMARK  8 active torsions:
REMARK  status: ('A' for Active; 'I' for Inactive)
REMARK    1  A    between atoms: C_1  and  C_2
REMARK    2  A    between atoms: C_2  and  O_3
REMARK    3  A    between atoms: O_3  and  C_4
REMARK    4  A    between atoms: C_4  and  C_6
REMARK    5  A    between atoms: C_6  and  C_7
REMARK    6  A    between atoms: C_6  and  C_8
REMARK    7  A    between atoms: C_6  and  O_9
REMARK    8  A    between atoms: O_9  and  C_10
REMARK                            x       y       z     vdW  Elec       q    Type
REMARK                         _______ _______ _______ _____ _____    ______ ____
ROOT
ATOM      1  C   UNL     1       0.506  -1.798  -0.111  0.00  0.00    +0.200 C 
ATOM      2  C   UNL     1       0.380  -2.299  -1.566  0.00  0.00    +0.067 C 
ATOM      3  C   UNL     1       0.895  -2.982   0.783  0.00  0.00    +0.067 C 
ENDROOT
BRANCH   1   4
ATOM      4  C   UNL     1       1.572  -0.737   0.039  0.00  0.00    +0.351 C 
ATOM      5  O   UNL     1       2.577  -0.729  -0.725  0.00  0.00    -0.246 OA
BRANCH   4   6
ATOM      6  O   UNL     1       1.465   0.197   1.077  0.00  0.00    -0.462 OA
BRANCH   6   8
ATOM      7  C   UNL     1       2.084   2.382   0.224  0.00  0.00    +0.048 C 
ATOM      8  C   UNL     1       2.366   1.288   1.248  0.00  0.00    +0.229 C 
ENDBRANCH   6   8
ENDBRANCH   4   6
ENDBRANCH   1   4
BRANCH   1   9
ATOM      9  O   UNL     1      -0.764  -1.313   0.353  0.00  0.00    -0.475 OA
BRANCH   9  10
ATOM     10  C   UNL     1      -1.492  -0.197  -0.103  0.00  0.00    +0.122 A 
ATOM     11  C   UNL     1      -0.997   0.729  -1.046  0.00  0.00    +0.047 A 
ATOM     12  C   UNL     1      -1.776   1.821  -1.440  0.00  0.00    +0.023 A 
ATOM     13  C   UNL     1      -3.053   2.004  -0.903  0.00  0.00    +0.041 A 
ATOM     14 CL   UNL     1      -4.027   3.376  -1.398  0.00  0.00    -0.084 Cl
ATOM     15  C   UNL     1      -3.551   1.093   0.032  0.00  0.00    +0.023 A 
ATOM     16  C   UNL     1      -2.773   0.001   0.429  0.00  0.00    +0.047 A 
ENDBRANCH   9  10
ENDBRANCH   1   9
TORSDOF 5
