REMARK  Name = 
REMARK  12 active torsions:
REMARK  status: ('A' for Active; 'I' for Inactive)
REMARK    1  A    between atoms: C_5  and  O_6
REMARK    2  A    between atoms: C_7  and  O_8
REMARK    3  A    between atoms: C_11  and  C_12
REMARK    4  A    between atoms: N_14  and  C_15
REMARK    5  A    between atoms: C_15  and  O_16
REMARK    6  A    between atoms: C_17  and  O_18
REMARK    7  A    between atoms: C_19  and  N_20
REMARK    8  A    between atoms: N_20  and  C_21
REMARK    9  A    between atoms: N_20  and  C_22
REMARK   10  A    between atoms: C_26  and  O_27
REMARK   11  A    between atoms: C_33  and  C_34
REMARK   12  A    between atoms: C_33  and  O_35
REMARK                            x       y       z     vdW  Elec       q    Type
REMARK                         _______ _______ _______ _____ _____    ______ ____
ROOT
ATOM      1  C   UNL     1       0.546  -1.307   0.503  0.00  0.00    +0.061 C 
ATOM      2  C   UNL     1      -0.387  -0.776  -0.602  0.00  0.00    +0.020 C 
ATOM      3  C   UNL     1      -1.798  -0.476  -0.047  0.00  0.00    +0.063 C 
ATOM      4  C   UNL     1      -1.758   0.204   1.299  0.00  0.00    +0.047 C 
ATOM      5  C   UNL     1      -0.613   0.382   2.011  0.00  0.00    +0.141 C 
ATOM      6  C   UNL     1       0.723  -0.231   1.611  0.00  0.00    +0.190 C 
ATOM      7  C   UNL     1       1.665   0.873   1.143  0.00  0.00    +0.211 C 
ATOM      8  O   UNL     1       1.739   1.944   1.807  0.00  0.00    -0.288 OA
ATOM      9  C   UNL     1       2.567   0.681  -0.024  0.00  0.00    +0.121 C 
ATOM     10  C   UNL     1       2.632  -0.512  -0.651  0.00  0.00    +0.127 C 
ATOM     11  C   UNL     1       1.920  -1.744  -0.102  0.00  0.00    +0.129 C 
ATOM     12  C   UNL     1      -3.090   0.471   1.878  0.00  0.00    +0.197 C 
ATOM     13  O   UNL     1      -3.244   0.446   3.128  0.00  0.00    -0.287 OA
ATOM     14  C   UNL     1      -4.229   0.763   0.971  0.00  0.00    +0.071 A 
ATOM     15  C   UNL     1      -5.525   1.064   1.473  0.00  0.00    +0.128 A 
ATOM     16  C   UNL     1      -6.449   1.713   0.658  0.00  0.00    +0.047 A 
ATOM     17  C   UNL     1      -6.123   2.052  -0.647  0.00  0.00    +0.024 A 
ATOM     18  C   UNL     1      -4.900   1.667  -1.194  0.00  0.00    +0.048 A 
ATOM     19 CL   UNL     1      -4.556   2.254  -2.822  0.00  0.00    -0.083 Cl
ATOM     20  C   UNL     1      -3.969   0.917  -0.420  0.00  0.00    +0.017 A 
ATOM     21  C   UNL     1      -2.701   0.320  -1.068  0.00  0.00    +0.097 C 
ATOM     22  C   UNL     1      -3.147  -0.684  -2.174  0.00  0.00    +0.047 C 
ENDROOT
BRANCH   9  23
ATOM     23  C   UNL     1       3.337   1.841  -0.533  0.00  0.00    +0.252 C 
ATOM     24  O   UNL     1       2.783   2.971  -0.601  0.00  0.00    -0.270 OA
ATOM     25  N   UNL     1       4.713   1.695  -0.915  0.00  0.00    -0.289 N 
ATOM     26  H   UNL     1       5.212   0.801  -0.705  0.00  0.00    +0.151 HD
BRANCH  25  27
ATOM     27  C   UNL     1       5.466   2.783  -1.526  0.00  0.00    +0.264 C 
BRANCH  27  28
ATOM     28  O   UNL     1       4.931   3.073  -2.787  0.00  0.00    -0.377 OA
ATOM     29  H   UNL     1       5.465   3.829  -3.145  0.00  0.00    +0.211 HD
ENDBRANCH  27  28
ENDBRANCH  25  27
ENDBRANCH   9  23
BRANCH  11  30
ATOM     30  N   UNL     1       2.780  -2.470   0.882  0.00  0.00    -0.299 NA
ATOM     31  C   UNL     1       2.152  -3.733   1.327  0.00  0.00    +0.105 C 
ATOM     32  C   UNL     1       4.109  -2.785   0.319  0.00  0.00    +0.105 C 
ENDBRANCH  11  30
BRANCH   5  33
ATOM     33  O   UNL     1      -0.601   1.163   3.173  0.00  0.00    -0.507 OA
ATOM     34  H   UNL     1      -1.328   1.829   3.405  0.00  0.00    +0.292 HD
ENDBRANCH   5  33
BRANCH   6  35
ATOM     35  O   UNL     1       1.237  -0.849   2.772  0.00  0.00    -0.373 OA
ATOM     36  H   UNL     1       2.228  -0.859   2.735  0.00  0.00    +0.211 HD
ENDBRANCH   6  35
BRANCH  10  37
ATOM     37  O   UNL     1       3.359  -0.632  -1.838  0.00  0.00    -0.509 OA
ATOM     38  H   UNL     1       3.418  -1.509  -2.338  0.00  0.00    +0.292 HD
ENDBRANCH  10  37
BRANCH  15  39
ATOM     39  O   UNL     1      -5.943   0.726   2.762  0.00  0.00    -0.506 OA
ATOM     40  H   UNL     1      -5.508   0.000   3.316  0.00  0.00    +0.292 HD
ENDBRANCH  15  39
BRANCH  21  41
ATOM     41  O   UNL     1      -1.965   1.398  -1.607  0.00  0.00    -0.384 OA
ATOM     42  H   UNL     1      -1.500   1.100  -2.431  0.00  0.00    +0.211 HD
ENDBRANCH  21  41
TORSDOF 9
