REMARK  Name = 
REMARK  11 active torsions:
REMARK  status: ('A' for Active; 'I' for Inactive)
REMARK    1  A    between atoms: C_1  and  C_2
REMARK    2  A    between atoms: C_2  and  N_3
REMARK    3  A    between atoms: N_3  and  C_4
REMARK    4  A    between atoms: N_3  and  C_6
REMARK    5  A    between atoms: C_4  and  C_5
REMARK    6  A    between atoms: C_6  and  C_7
REMARK    7  A    between atoms: C_7  and  O_8
REMARK    8  A    between atoms: O_8  and  C_9
REMARK    9  A    between atoms: C_12  and  C_15
REMARK   10  A    between atoms: C_15  and  C_24
REMARK   11  A    between atoms: C_16  and  C_18
REMARK                            x       y       z     vdW  Elec       q    Type
REMARK                         _______ _______ _______ _____ _____    ______ ____
ROOT
ATOM      1  C   UNL     1      -2.753   0.183   0.318  0.00  0.00    +0.008 C 
ATOM      2  C   UNL     1      -3.368   1.393   0.282  0.00  0.00    +0.056 C 
ATOM      3 CL   UNL     1      -2.427   2.884   0.167  0.00  0.00    -0.082 Cl
ENDROOT
BRANCH   1   7
ATOM      4  C   UNL     1       1.468  -0.253  -0.375  0.00  0.00    +0.121 A 
ATOM      5  C   UNL     1       0.649   0.350  -1.349  0.00  0.00    +0.046 A 
ATOM      6  C   UNL     1      -0.722   0.499  -1.121  0.00  0.00    +0.012 A 
ATOM      7  C   UNL     1      -1.294   0.060   0.084  0.00  0.00    -0.016 A 
ATOM      8  C   UNL     1      -0.478  -0.556   1.045  0.00  0.00    +0.012 A 
ATOM      9  C   UNL     1       0.892  -0.705   0.817  0.00  0.00    +0.046 A 
BRANCH   4  10
ATOM     10  O   UNL     1       2.849  -0.423  -0.554  0.00  0.00    -0.491 OA
BRANCH  10  11
ATOM     11  C   UNL     1       3.571   0.001  -1.708  0.00  0.00    +0.244 C 
BRANCH  11  12
ATOM     12  C   UNL     1       5.055  -0.336  -1.544  0.00  0.00    +0.125 C 
BRANCH  12  13
ATOM     13  N   UNL     1       5.592   0.128  -0.242  0.00  0.00    -0.300 NA
BRANCH  13  15
ATOM     14  C   UNL     1       6.676  -1.822   0.809  0.00  0.00    +0.020 C 
ATOM     15  C   UNL     1       6.894  -0.506   0.068  0.00  0.00    +0.081 C 
ENDBRANCH  13  15
BRANCH  13  16
ATOM     16  C   UNL     1       5.637   1.604  -0.097  0.00  0.00    +0.081 C 
ATOM     17  C   UNL     1       6.525   2.311  -1.131  0.00  0.00    +0.020 C 
ENDBRANCH  13  16
ENDBRANCH  12  13
ENDBRANCH  11  12
ENDBRANCH  10  11
ENDBRANCH   4  10
ENDBRANCH   1   7
BRANCH   2  18
ATOM     18  C   UNL     1      -4.840   1.544   0.354  0.00  0.00    -0.006 A 
ATOM     19  C   UNL     1      -5.411   2.435   1.278  0.00  0.00    +0.009 A 
ATOM     20  C   UNL     1      -6.800   2.586   1.347  0.00  0.00    +0.001 A 
ATOM     21  C   UNL     1      -7.628   1.859   0.488  0.00  0.00    +0.000 A 
ATOM     22  C   UNL     1      -7.068   0.982  -0.445  0.00  0.00    +0.001 A 
ATOM     23  C   UNL     1      -5.681   0.829  -0.518  0.00  0.00    +0.009 A 
ENDBRANCH   2  18
BRANCH   1  24
ATOM     24  C   UNL     1      -3.494  -1.066   0.634  0.00  0.00    -0.016 A 
ATOM     25  C   UNL     1      -4.285  -1.161   1.793  0.00  0.00    +0.008 A 
ATOM     26  C   UNL     1      -4.968  -2.345   2.086  0.00  0.00    +0.001 A 
ATOM     27  C   UNL     1      -4.857  -3.447   1.234  0.00  0.00    +0.000 A 
ATOM     28  C   UNL     1      -4.059  -3.368   0.089  0.00  0.00    +0.001 A 
ATOM     29  C   UNL     1      -3.376  -2.185  -0.208  0.00  0.00    +0.008 A 
ENDBRANCH   1  24
TORSDOF 9
