REMARK  Name = 
REMARK  6 active torsions:
REMARK  status: ('A' for Active; 'I' for Inactive)
REMARK    1  A    between atoms: C_1  and  N_2
REMARK    2  A    between atoms: N_2  and  C_3
REMARK    3  A    between atoms: N_2  and  C_4
REMARK    4  A    between atoms: C_4  and  C_5
REMARK    5  A    between atoms: C_5  and  C_6
REMARK    6  A    between atoms: C_6  and  N_7
REMARK                            x       y       z     vdW  Elec       q    Type
REMARK                         _______ _______ _______ _____ _____    ______ ____
ROOT
ATOM      1  N   UNL     1      -0.568   0.131  -0.509  0.00  0.00    -0.300 N 
ATOM      2  C   UNL     1      -1.312   1.350  -0.285  0.00  0.00    +0.037 A 
ATOM      3  C   UNL     1      -0.959   2.494  -1.031  0.00  0.00    +0.024 A 
ATOM      4  C   UNL     1      -1.634   3.701  -0.862  0.00  0.00    +0.002 A 
ATOM      5  C   UNL     1      -2.683   3.791   0.046  0.00  0.00    +0.000 A 
ATOM      6  C   UNL     1      -3.064   2.672   0.785  0.00  0.00    +0.005 A 
ATOM      7  C   UNL     1      -2.395   1.440   0.646  0.00  0.00    -0.026 A 
ATOM      8  C   UNL     1      -2.953   0.296   1.483  0.00  0.00    +0.042 C 
ATOM      9  C   UNL     1      -2.092  -0.960   1.606  0.00  0.00    +0.042 C 
ATOM     10  C   UNL     1      -2.020  -1.670   0.287  0.00  0.00    -0.026 A 
ATOM     11  C   UNL     1      -1.279  -1.093  -0.750  0.00  0.00    +0.039 A 
ATOM     12  C   UNL     1      -1.204  -1.732  -1.997  0.00  0.00    +0.043 A 
ATOM     13  C   UNL     1      -1.884  -2.935  -2.210  0.00  0.00    +0.043 A 
ATOM     14 CL   UNL     1      -1.793  -3.729  -3.772  0.00  0.00    -0.083 Cl
ATOM     15  C   UNL     1      -2.639  -3.503  -1.179  0.00  0.00    +0.020 A 
ATOM     16  C   UNL     1      -2.711  -2.872   0.066  0.00  0.00    +0.007 A 
ENDROOT
BRANCH   1  17
ATOM     17  C   UNL     1       0.895   0.168  -0.686  0.00  0.00    +0.112 C 
BRANCH  17  18
ATOM     18  C   UNL     1       1.586  -0.935   0.131  0.00  0.00    +0.035 C 
BRANCH  18  19
ATOM     19  C   UNL     1       3.114  -0.896  -0.027  0.00  0.00    +0.085 C 
BRANCH  19  21
ATOM     20  C   UNL     1       4.971   0.646  -0.212  0.00  0.00    +0.104 C 
ATOM     21  N   UNL     1       3.676   0.391   0.439  0.00  0.00    -0.308 NA
ATOM     22  C   UNL     1       3.856   0.394   1.902  0.00  0.00    +0.104 C 
ENDBRANCH  19  21
ENDBRANCH  18  19
ENDBRANCH  17  18
ENDBRANCH   1  17
TORSDOF 4
