REMARK  Name = 
REMARK  2 active torsions:
REMARK  status: ('A' for Active; 'I' for Inactive)
REMARK    1  A    between atoms: N_2  and  C_4
REMARK    2  A    between atoms: C_13  and  C_14
REMARK                            x       y       z     vdW  Elec       q    Type
REMARK                         _______ _______ _______ _____ _____    ______ ____
ROOT
ATOM      1  C   UNL     1      -1.841   1.887   1.154  0.00  0.00    +0.127 A 
ATOM      2  C   UNL     1      -0.734   1.032   1.032  0.00  0.00    +0.044 A 
ATOM      3  C   UNL     1      -0.800  -0.145   0.260  0.00  0.00    +0.024 A 
ATOM      4  C   UNL     1      -2.019  -0.474  -0.388  0.00  0.00    +0.043 A 
ATOM      5  N   UNL     1      -2.172  -1.654  -1.196  0.00  0.00    -0.283 N 
ATOM      6  C   UNL     1      -1.648  -2.934  -0.828  0.00  0.00    +0.239 C 
ATOM      7  O   UNL     1      -1.940  -3.948  -1.517  0.00  0.00    -0.273 OA
ATOM      8  C   UNL     1      -0.756  -3.078   0.358  0.00  0.00    +0.238 C 
ATOM      9  N   UNL     1       0.431  -2.259   0.161  0.00  0.00    -0.273 NA
ATOM     10  C   UNL     1       0.445  -0.959   0.108  0.00  0.00    +0.076 C 
ATOM     11  C   UNL     1      -3.112   0.397  -0.279  0.00  0.00    +0.026 A 
ATOM     12  C   UNL     1      -3.028   1.560   0.486  0.00  0.00    +0.034 A 
ATOM     13  H   UNL     1      -2.856  -1.626  -1.987  0.00  0.00    +0.155 HD
ENDROOT
BRANCH  10  14
ATOM     14  C   UNL     1       1.744  -0.276  -0.114  0.00  0.00    +0.019 A 
ATOM     15  C   UNL     1       1.815   0.764  -1.059  0.00  0.00    +0.011 A 
ATOM     16  C   UNL     1       3.024   1.420  -1.304  0.00  0.00    +0.001 A 
ATOM     17  C   UNL     1       4.175   1.049  -0.608  0.00  0.00    +0.001 A 
ATOM     18  C   UNL     1       4.119   0.024   0.338  0.00  0.00    +0.020 A 
ATOM     19  C   UNL     1       2.913  -0.641   0.593  0.00  0.00    +0.050 A 
ATOM     20 CL   UNL     1       2.902  -1.876   1.850  0.00  0.00    -0.083 Cl
ENDBRANCH  10  14
BRANCH   1  22
ATOM     21  O   UNL     1      -2.846   3.924   2.062  0.00  0.00    -0.126 OA
ATOM     22  N   UNL     1      -1.759   3.088   1.946  0.00  0.00    +0.056 N 
ATOM     23  O   UNL     1      -0.703   3.390   2.539  0.00  0.00    -0.126 OA
ENDBRANCH   1  22
TORSDOF 2
