REMARK  Name = 
REMARK  1 active torsions:
REMARK  status: ('A' for Active; 'I' for Inactive)
REMARK    1  A    between atoms: C_8  and  N_9
REMARK                            x       y       z     vdW  Elec       q    Type
REMARK                         _______ _______ _______ _____ _____    ______ ____
ROOT
ATOM      1 CL   UNL     1      -0.630  -0.020   2.567  0.00  0.00    -0.082 Cl
ATOM      2  C   UNL     1      -1.618  -0.123   1.115  0.00  0.00    +0.064 A 
ATOM      3  C   UNL     1      -2.848  -0.786   1.189  0.00  0.00    +0.022 A 
ATOM      4  C   UNL     1      -3.690  -0.834   0.076  0.00  0.00    +0.003 A 
ATOM      5  C   UNL     1      -3.312  -0.212  -1.115  0.00  0.00    +0.022 A 
ATOM      6  C   UNL     1      -2.085   0.455  -1.203  0.00  0.00    +0.064 A 
ATOM      7 CL   UNL     1      -1.635   1.211  -2.725  0.00  0.00    -0.082 Cl
ATOM      8  C   UNL     1      -1.220   0.491  -0.092  0.00  0.00    +0.070 A 
ENDROOT
BRANCH   8   9
ATOM      9  N   UNL     1       0.036   1.178  -0.188  0.00  0.00    -0.285 N 
ATOM     10  C   UNL     1       1.293   0.506  -0.045  0.00  0.00    +0.180 C 
ATOM     11  N   UNL     1       1.395  -0.765   0.133  0.00  0.00    -0.254 NA
ATOM     12  C   UNL     1       2.804  -1.131   0.217  0.00  0.00    +0.163 C 
ATOM     13  C   UNL     1       3.574   0.188   0.036  0.00  0.00    +0.127 C 
ATOM     14  N   UNL     1       2.530   1.180  -0.124  0.00  0.00    -0.315 N 
ATOM     15  H   UNL     1       0.041   2.165  -0.529  0.00  0.00    +0.155 HD
ATOM     16  H   UNL     1       2.668   2.204  -0.275  0.00  0.00    +0.149 HD
ENDBRANCH   8   9
TORSDOF 1
