REMARK  Name = 
REMARK  5 active torsions:
REMARK  status: ('A' for Active; 'I' for Inactive)
REMARK    1  A    between atoms: C_1  and  N_2
REMARK    2  A    between atoms: C_1  and  C_11
REMARK    3  A    between atoms: C_1  and  C_15
REMARK    4  A    between atoms: C_11  and  O_13
REMARK    5  A    between atoms: O_13  and  C_14
REMARK                            x       y       z     vdW  Elec       q    Type
REMARK                         _______ _______ _______ _____ _____    ______ ____
ROOT
ATOM      1  C   UNL     1      -1.056   0.265   0.213  0.00  0.00    +0.198 C 
ENDROOT
BRANCH   1   2
ATOM      2  N   UNL     1      -0.524  -0.487  -0.961  0.00  0.00    -0.282 NA
ATOM      3  C   UNL     1      -0.706   0.274  -2.241  0.00  0.00    +0.091 C 
ATOM      4  C   UNL     1       0.397   0.054  -3.295  0.00  0.00    +0.058 C 
ATOM      5  C   UNL     1       1.712   0.175  -2.619  0.00  0.00    -0.005 A 
ATOM      6  C   UNL     1       1.916  -0.360  -1.377  0.00  0.00    -0.023 A 
ATOM      7  C   UNL     1       0.808  -1.125  -0.728  0.00  0.00    +0.121 C 
ATOM      8  C   UNL     1       3.218  -0.190  -0.896  0.00  0.00    +0.013 A 
ATOM      9  C   UNL     1       4.031   0.508  -1.786  0.00  0.00    +0.046 A 
ATOM     10  S   UNL     1       3.130   0.887  -3.166  0.00  0.00    -0.101 S 
ENDBRANCH   1   2
BRANCH   1  11
ATOM     11  C   UNL     1      -1.694  -0.643   1.270  0.00  0.00    -0.001 A 
ATOM     12  C   UNL     1      -1.644  -2.052   1.167  0.00  0.00    +0.007 A 
ATOM     13  C   UNL     1      -2.231  -2.864   2.140  0.00  0.00    +0.000 A 
ATOM     14  C   UNL     1      -2.894  -2.292   3.224  0.00  0.00    +0.001 A 
ATOM     15  C   UNL     1      -2.987  -0.905   3.330  0.00  0.00    +0.020 A 
ATOM     16  C   UNL     1      -2.404  -0.078   2.362  0.00  0.00    +0.046 A 
ATOM     17 CL   UNL     1      -2.621   1.662   2.542  0.00  0.00    -0.083 Cl
ENDBRANCH   1  11
BRANCH   1  18
ATOM     18  C   UNL     1      -0.006   1.186   0.800  0.00  0.00    +0.329 C 
ATOM     19  O   UNL     1       0.643   0.846   1.829  0.00  0.00    -0.249 OA
BRANCH  18  20
ATOM     20  O   UNL     1       0.279   2.392   0.154  0.00  0.00    -0.467 OA
ATOM     21  C   UNL     1       1.324   3.258   0.576  0.00  0.00    +0.280 C 
ENDBRANCH  18  20
ENDBRANCH   1  18
TORSDOF 4
