REMARK  Name = 
REMARK  3 active torsions:
REMARK  status: ('A' for Active; 'I' for Inactive)
REMARK    1  A    between atoms: O_1  and  C_2
REMARK    2  A    between atoms: C_2  and  CA_4
REMARK    3  A    between atoms: C_6  and  C_7
REMARK                            x       y       z     vdW  Elec       q    Type
REMARK                         _______ _______ _______ _____ _____    ______ ____
ROOT
ATOM      1  CA  UNL     1      -1.668  -1.145   1.807  0.00  0.00    +0.299 C 
ATOM      2  N   UNL     1      -0.853  -1.508   0.650  0.00  0.00    -0.259 NA
ATOM      3  C   UNL     1      -0.140  -0.703  -0.088  0.00  0.00    +0.076 C 
ATOM      4  C   UNL     1      -0.028   0.753   0.218  0.00  0.00    +0.023 A 
ATOM      5  C   UNL     1      -1.153   1.554   0.545  0.00  0.00    +0.043 A 
ATOM      6  N   UNL     1      -2.475   1.006   0.675  0.00  0.00    -0.283 N 
ATOM      7  C   UNL     1      -2.762  -0.214   1.371  0.00  0.00    +0.253 C 
ATOM      8  O   UNL     1      -3.961  -0.512   1.621  0.00  0.00    -0.273 OA
ATOM      9  C   UNL     1      -0.985   2.935   0.731  0.00  0.00    +0.025 A 
ATOM     10  C   UNL     1       0.278   3.519   0.642  0.00  0.00    +0.022 A 
ATOM     11  C   UNL     1       1.393   2.732   0.359  0.00  0.00    +0.042 A 
ATOM     12 CL   UNL     1       2.983   3.465   0.257  0.00  0.00    -0.084 Cl
ATOM     13  C   UNL     1       1.241   1.359   0.147  0.00  0.00    +0.032 A 
ATOM     14  H   UNL     1      -3.286   1.626   0.447  0.00  0.00    +0.155 HD
ENDROOT
BRANCH   3  15
ATOM     15  C   UNL     1       0.605  -1.285  -1.236  0.00  0.00    +0.001 A 
ATOM     16  C   UNL     1       1.069  -2.614  -1.185  0.00  0.00    +0.010 A 
ATOM     17  C   UNL     1       1.762  -3.164  -2.267  0.00  0.00    +0.001 A 
ATOM     18  C   UNL     1       1.993  -2.401  -3.413  0.00  0.00    +0.000 A 
ATOM     19  C   UNL     1       1.529  -1.085  -3.481  0.00  0.00    +0.001 A 
ATOM     20  C   UNL     1       0.836  -0.529  -2.402  0.00  0.00    +0.010 A 
ENDBRANCH   3  15
BRANCH   1  21
ATOM     21  C   UNL     1      -0.832  -0.575   2.924  0.00  0.00    +0.339 C 
ATOM     22  OXT UNL     1       0.306  -1.059   3.166  0.00  0.00    -0.248 OA
BRANCH  21  23
ATOM     23  O   UNL     1      -1.333   0.443   3.732  0.00  0.00    -0.479 OA
ATOM     24  H   UNL     1      -0.782   0.820   4.494  0.00  0.00    +0.295 HD
ENDBRANCH  21  23
ENDBRANCH   1  21
TORSDOF 3
