REMARK  Name = 
REMARK  4 active torsions:
REMARK  status: ('A' for Active; 'I' for Inactive)
REMARK    1  A    between atoms: C_7  and  C_8
REMARK    2  A    between atoms: C_8  and  N_9
REMARK    3  A    between atoms: C_8  and  C_14
REMARK    4  A    between atoms: C_8  and  C_20
REMARK                            x       y       z     vdW  Elec       q    Type
REMARK                         _______ _______ _______ _____ _____    ______ ____
ROOT
ATOM      1  C   UNL     1       0.044  -0.080   0.298  0.00  0.00    +0.123 C 
ENDROOT
BRANCH   1   8
ATOM      2 CL   UNL     1       1.808   1.975   2.109  0.00  0.00    -0.083 Cl
ATOM      3  C   UNL     1       0.646   2.409   0.857  0.00  0.00    +0.047 A 
ATOM      4  C   UNL     1       0.514   3.780   0.600  0.00  0.00    +0.020 A 
ATOM      5  C   UNL     1      -0.285   4.234  -0.445  0.00  0.00    +0.001 A 
ATOM      6  C   UNL     1      -0.935   3.321  -1.266  0.00  0.00    +0.000 A 
ATOM      7  C   UNL     1      -0.820   1.953  -1.022  0.00  0.00    +0.008 A 
ATOM      8  C   UNL     1      -0.089   1.456   0.087  0.00  0.00    +0.006 A 
ENDBRANCH   1   8
BRANCH   1   9
ATOM      9  C   UNL     1       1.367  -0.454  -0.410  0.00  0.00    -0.013 A 
ATOM     10  C   UNL     1       1.423  -0.452  -1.824  0.00  0.00    +0.006 A 
ATOM     11  C   UNL     1       2.616  -0.720  -2.499  0.00  0.00    +0.000 A 
ATOM     12  C   UNL     1       3.785  -0.966  -1.782  0.00  0.00    +0.000 A 
ATOM     13  C   UNL     1       3.767  -0.929  -0.388  0.00  0.00    +0.000 A 
ATOM     14  C   UNL     1       2.576  -0.662   0.293  0.00  0.00    +0.006 A 
ENDBRANCH   1   9
BRANCH   1  15
ATOM     15  C   UNL     1      -1.157  -0.869  -0.277  0.00  0.00    -0.013 A 
ATOM     16  C   UNL     1      -2.476  -0.423  -0.031  0.00  0.00    +0.006 A 
ATOM     17  C   UNL     1      -3.579  -1.171  -0.452  0.00  0.00    +0.000 A 
ATOM     18  C   UNL     1      -3.392  -2.401  -1.080  0.00  0.00    +0.000 A 
ATOM     19  C   UNL     1      -2.102  -2.898  -1.265  0.00  0.00    +0.000 A 
ATOM     20  C   UNL     1      -0.995  -2.154  -0.846  0.00  0.00    +0.006 A 
ENDBRANCH   1  15
BRANCH   1  21
ATOM     21  N   UNL     1       0.049  -0.436   1.739  0.00  0.00    -0.319 N 
ATOM     22  C   UNL     1      -0.667   0.159   2.718  0.00  0.00    +0.108 A 
ATOM     23  C   UNL     1      -0.651  -0.647   3.831  0.00  0.00    +0.130 A 
ATOM     24  N   UNL     1       0.014  -1.782   3.552  0.00  0.00    -0.244 NA
ATOM     25  C   UNL     1       0.403  -1.633   2.269  0.00  0.00    +0.200 A 
ENDBRANCH   1  21
TORSDOF 4
