REMARK  Name = 
REMARK  4 active torsions:
REMARK  status: ('A' for Active; 'I' for Inactive)
REMARK    1  A    between atoms: C_1  and  C_2
REMARK    2  A    between atoms: C_2  and  C_3
REMARK    3  A    between atoms: N_8  and  C_9
REMARK    4  A    between atoms: C_14  and  C_15
REMARK                            x       y       z     vdW  Elec       q    Type
REMARK                         _______ _______ _______ _____ _____    ______ ____
ROOT
ATOM      1  C   UNL     1       2.107  -1.108  -0.467  0.00  0.00    -0.008 A 
ATOM      2  C   UNL     1       0.902  -0.928   0.201  0.00  0.00    +0.023 A 
ATOM      3  C   UNL     1       0.306   0.321  -0.043  0.00  0.00    +0.030 A 
ATOM      4  C   UNL     1       1.066   1.123  -0.904  0.00  0.00    +0.084 A 
ATOM      5  S   UNL     1       2.455   0.278  -1.352  0.00  0.00    -0.078 S 
ATOM      6  N   UNL     1       0.705   2.429  -1.397  0.00  0.00    -0.267 N 
ATOM      7  C   UNL     1       1.223   2.870  -2.696  0.00  0.00    +0.139 C 
ATOM      8  C   UNL     1      -0.000   3.365  -0.559  0.00  0.00    +0.241 C 
ATOM      9  O   UNL     1      -0.340   4.493  -1.012  0.00  0.00    -0.273 OA
ATOM     10  C   UNL     1      -0.334   3.028   0.861  0.00  0.00    +0.238 C 
ATOM     11  N   UNL     1      -1.275   1.915   0.903  0.00  0.00    -0.273 NA
ATOM     12  C   UNL     1      -1.014   0.696   0.527  0.00  0.00    +0.077 C 
ENDROOT
BRANCH  12  13
ATOM     13  C   UNL     1      -2.072  -0.334   0.666  0.00  0.00    +0.019 A 
ATOM     14  C   UNL     1      -2.328  -1.202  -0.412  0.00  0.00    +0.011 A 
ATOM     15  C   UNL     1      -3.327  -2.173  -0.321  0.00  0.00    +0.001 A 
ATOM     16  C   UNL     1      -4.083  -2.292   0.845  0.00  0.00    +0.001 A 
ATOM     17  C   UNL     1      -3.838  -1.443   1.926  0.00  0.00    +0.020 A 
ATOM     18  C   UNL     1      -2.839  -0.465   1.847  0.00  0.00    +0.050 A 
ATOM     19 CL   UNL     1      -2.541   0.527   3.272  0.00  0.00    -0.083 Cl
ENDBRANCH  12  13
BRANCH   1  21
ATOM     20  C   UNL     1       3.941  -2.162   0.835  0.00  0.00    +0.009 C 
ATOM     21  C   UNL     1       2.998  -2.305  -0.354  0.00  0.00    +0.039 C 
ENDBRANCH   1  21
TORSDOF 2
