REMARK  Name = 
REMARK  1 active torsions:
REMARK  status: ('A' for Active; 'I' for Inactive)
REMARK    1  A    between atoms: C_14  and  C_15
REMARK                            x       y       z     vdW  Elec       q    Type
REMARK                         _______ _______ _______ _____ _____    ______ ____
ROOT
ATOM      1 CL   UNL     1      -3.857   1.466   3.207  0.00  0.00    -0.084 Cl
ATOM      2  C   UNL     1      -2.899   1.333   1.743  0.00  0.00    +0.041 A 
ATOM      3  C   UNL     1      -1.861   0.401   1.671  0.00  0.00    +0.030 A 
ATOM      4  C   UNL     1      -1.059   0.296   0.511  0.00  0.00    +0.026 A 
ATOM      5  C   UNL     1      -1.396   1.099  -0.612  0.00  0.00    +0.041 A 
ATOM      6  N   UNL     1      -0.769   0.897  -1.885  0.00  0.00    -0.284 N 
ATOM      7  C   UNL     1      -0.551  -0.420  -2.402  0.00  0.00    +0.231 C 
ATOM      8  O   UNL     1      -0.044  -0.567  -3.546  0.00  0.00    -0.274 OA
ATOM      9  C   UNL     1      -0.912  -1.624  -1.582  0.00  0.00    +0.184 C 
ATOM     10  N   UNL     1       0.012  -1.777  -0.439  0.00  0.00    -0.256 NA
ATOM     11  C   UNL     1      -0.363  -2.885   0.413  0.00  0.00    +0.116 C 
ATOM     12  C   UNL     1       0.252  -2.541   1.738  0.00  0.00    +0.178 C 
ATOM     13  O   UNL     1       0.407  -1.147   1.792  0.00  0.00    -0.349 OA
ATOM     14  C   UNL     1       0.182  -0.627   0.490  0.00  0.00    +0.179 C 
ATOM     15  C   UNL     1      -2.420   2.051  -0.512  0.00  0.00    +0.025 A 
ATOM     16  C   UNL     1      -3.164   2.171   0.661  0.00  0.00    +0.022 A 
ATOM     17  H   UNL     1      -0.651   1.711  -2.530  0.00  0.00    +0.155 HD
ENDROOT
BRANCH  14  18
ATOM     18  C   UNL     1       1.443   0.183   0.132  0.00  0.00    +0.022 A 
ATOM     19  C   UNL     1       2.281  -0.210  -0.940  0.00  0.00    +0.009 A 
ATOM     20  C   UNL     1       3.421   0.524  -1.272  0.00  0.00    +0.000 A 
ATOM     21  C   UNL     1       3.770   1.650  -0.532  0.00  0.00    +0.001 A 
ATOM     22  C   UNL     1       2.990   2.035   0.555  0.00  0.00    +0.020 A 
ATOM     23  C   UNL     1       1.843   1.310   0.904  0.00  0.00    +0.049 A 
ATOM     24 CL   UNL     1       0.981   1.839   2.346  0.00  0.00    -0.083 Cl
ENDBRANCH  14  18
TORSDOF 1
