REMARK  Name = 
REMARK  8 active torsions:
REMARK  status: ('A' for Active; 'I' for Inactive)
REMARK    1  A    between atoms: C_3  and  C_4
REMARK    2  A    between atoms: C_3  and  C_5
REMARK    3  A    between atoms: CA_6  and  C_27
REMARK    4  A    between atoms: CA_10  and  N_11
REMARK    5  A    between atoms: C_12  and  C_14
REMARK    6  A    between atoms: C_15  and  C_16
REMARK    7  A    between atoms: C_19  and  C_20
REMARK    8  A    between atoms: C_27  and  O_28
REMARK                            x       y       z     vdW  Elec       q    Type
REMARK                         _______ _______ _______ _____ _____    ______ ____
ROOT
ATOM      1  N   UNL     1      -0.052  -0.273   0.848  0.00  0.00    -0.298 N 
ATOM      2  C   UNL     1      -1.275  -0.226   0.100  0.00  0.00    +0.250 C 
ATOM      3  O   UNL     1      -1.586  -1.186  -0.656  0.00  0.00    -0.270 OA
ATOM      4  H   UNL     1       0.125   0.458   1.573  0.00  0.00    +0.150 HD
ENDROOT
BRANCH   1  14
ATOM      5  C   UNL     1       1.766  -1.431  -0.320  0.00  0.00    +0.165 C 
ATOM      6  S   UNL     1       1.822   0.025  -1.430  0.00  0.00    -0.127 S 
ATOM      7  C   UNL     1       3.424   0.654  -0.727  0.00  0.00    +0.042 C 
ATOM      8  C   UNL     1       3.101   1.887   0.136  0.00  0.00    +0.025 C 
ATOM      9  C   UNL     1       4.341   1.091  -1.886  0.00  0.00    +0.025 C 
ATOM     10  CA  UNL     1       4.039  -0.463   0.178  0.00  0.00    +0.201 C 
ATOM     11  N   UNL     1       2.909  -1.283   0.528  0.00  0.00    -0.271 N 
ATOM     12  C   UNL     1       2.006  -1.318   1.702  0.00  0.00    +0.240 C 
ATOM     13  O   UNL     1       2.159  -1.221   2.948  0.00  0.00    -0.273 OA
ATOM     14  CA  UNL     1       0.832  -1.441   0.784  0.00  0.00    +0.190 C 
BRANCH  10  15
ATOM     15  C   UNL     1       5.080  -1.318  -0.505  0.00  0.00    +0.327 C 
ATOM     16  OXT UNL     1       4.733  -2.229  -1.304  0.00  0.00    -0.249 OA
BRANCH  15  17
ATOM     17  O   UNL     1       6.434  -1.076  -0.298  0.00  0.00    -0.479 OA
ATOM     18  H   UNL     1       6.748  -0.333   0.315  0.00  0.00    +0.295 HD
ENDBRANCH  15  17
ENDBRANCH  10  15
ENDBRANCH   1  14
BRANCH   2  19
ATOM     19  C   UNL     1      -2.196   0.921   0.223  0.00  0.00    +0.106 A 
ATOM     20  C   UNL     1      -1.885   2.267   0.320  0.00  0.00    +0.147 A 
ATOM     21  C   UNL     1      -0.530   2.890   0.382  0.00  0.00    +0.090 C 
ATOM     22  O   UNL     1      -3.003   2.955   0.329  0.00  0.00    -0.359 OA
ATOM     23  N   UNL     1      -4.040   2.175   0.231  0.00  0.00    -0.077 NA
ATOM     24  C   UNL     1      -3.583   0.909   0.151  0.00  0.00    +0.127 A 
BRANCH  24  25
ATOM     25  C   UNL     1      -4.468  -0.274   0.082  0.00  0.00    +0.023 A 
ATOM     26  C   UNL     1      -4.227  -1.371   0.928  0.00  0.00    +0.011 A 
ATOM     27  C   UNL     1      -5.063  -2.490   0.896  0.00  0.00    +0.001 A 
ATOM     28  C   UNL     1      -6.152  -2.524   0.025  0.00  0.00    +0.001 A 
ATOM     29  C   UNL     1      -6.408  -1.440  -0.817  0.00  0.00    +0.020 A 
ATOM     30  C   UNL     1      -5.576  -0.313  -0.794  0.00  0.00    +0.050 A 
ATOM     31 CL   UNL     1      -5.926   1.001  -1.913  0.00  0.00    -0.083 Cl
ENDBRANCH  24  25
ENDBRANCH   2  19
TORSDOF 5
