REMARK  Name = 
REMARK  1 active torsions:
REMARK  status: ('A' for Active; 'I' for Inactive)
REMARK    1  A    between atoms: C_1  and  N_2
REMARK                            x       y       z     vdW  Elec       q    Type
REMARK                         _______ _______ _______ _____ _____    ______ ____
ROOT
ATOM      1  C   UNL     1       4.816   0.787  -0.693  0.00  0.00    +0.105 C 
ATOM      2  N   UNL     1       4.192  -0.181   0.225  0.00  0.00    -0.302 NA
ATOM      3  C   UNL     1       3.364  -1.181  -0.480  0.00  0.00    +0.103 C 
ATOM      4  C   UNL     1       2.040  -0.597  -0.989  0.00  0.00    +0.122 C 
ATOM      5  N   UNL     1       1.355   0.118   0.091  0.00  0.00    -0.312 N 
ATOM      6  C   UNL     1       2.129   1.096   0.861  0.00  0.00    +0.122 C 
ATOM      7  C   UNL     1       3.454   0.474   1.324  0.00  0.00    +0.103 C 
ATOM      8  C   UNL     1      -0.085   0.154   0.121  0.00  0.00    +0.131 C 
ATOM      9  N   UNL     1      -0.669   1.311   0.255  0.00  0.00    -0.230 NA
ATOM     10  C   UNL     1      -2.065   1.636   0.296  0.00  0.00    +0.088 A 
ATOM     11  C   UNL     1      -2.446   2.782   1.009  0.00  0.00    +0.049 A 
ATOM     12  C   UNL     1      -3.768   3.232   0.984  0.00  0.00    +0.043 A 
ATOM     13 CL   UNL     1      -4.229   4.659   1.893  0.00  0.00    -0.083 Cl
ATOM     14  C   UNL     1      -4.719   2.555   0.217  0.00  0.00    +0.022 A 
ATOM     15  C   UNL     1      -4.347   1.428  -0.518  0.00  0.00    +0.027 A 
ATOM     16  C   UNL     1      -3.025   0.955  -0.480  0.00  0.00    +0.057 A 
ATOM     17  N   UNL     1      -2.682  -0.203  -1.244  0.00  0.00    -0.312 N 
ATOM     18  C   UNL     1      -2.030  -1.305  -0.609  0.00  0.00    +0.042 A 
ATOM     19  C   UNL     1      -2.611  -2.580  -0.703  0.00  0.00    +0.024 A 
ATOM     20  C   UNL     1      -2.031  -3.672  -0.057  0.00  0.00    +0.002 A 
ATOM     21  C   UNL     1      -0.862  -3.503   0.683  0.00  0.00    +0.001 A 
ATOM     22  C   UNL     1      -0.263  -2.245   0.764  0.00  0.00    +0.013 A 
ATOM     23  C   UNL     1      -0.831  -1.133   0.112  0.00  0.00    +0.036 A 
ATOM     24  H   UNL     1      -3.264  -0.412  -2.087  0.00  0.00    +0.152 HD
ENDROOT
TORSDOF 0
