REMARK  Name = 
REMARK  7 active torsions:
REMARK  status: ('A' for Active; 'I' for Inactive)
REMARK    1  A    between atoms: C_5  and  C_17
REMARK    2  A    between atoms: C_6  and  O_8
REMARK    3  A    between atoms: O_8  and  C_9
REMARK    4  A    between atoms: C_9  and  C_11
REMARK    5  A    between atoms: C_17  and  O_19
REMARK    6  A    between atoms: O_19  and  C_20
REMARK    7  A    between atoms: N_21  and  C_22
REMARK                            x       y       z     vdW  Elec       q    Type
REMARK                         _______ _______ _______ _____ _____    ______ ____
ROOT
ATOM      1  C   UNL     1      -2.200  -2.276   0.953  0.00  0.00    +0.060 C 
ATOM      2  C   UNL     1      -2.714  -2.790  -0.402  0.00  0.00    +0.020 C 
ATOM      3  C   UNL     1      -3.041  -1.518  -1.182  0.00  0.00    +0.021 C 
ATOM      4  C   UNL     1      -2.678  -0.379  -0.213  0.00  0.00    +0.074 C 
ATOM      5  C   UNL     1      -1.201   0.067  -0.417  0.00  0.00    +0.155 C 
ATOM      6  C   UNL     1      -0.209  -1.127  -0.196  0.00  0.00    +0.193 C 
ATOM      7  C   UNL     1      -0.664  -2.091   0.934  0.00  0.00    +0.064 C 
ATOM      8  N   UNL     1      -2.781  -0.945   1.136  0.00  0.00    -0.298 NA
ATOM      9  C   UNL     1      -4.172  -0.999   1.619  0.00  0.00    +0.105 C 
ENDROOT
BRANCH   5  10
ATOM     10  C   UNL     1      -0.870   1.241   0.472  0.00  0.00    +0.315 C 
ATOM     11  O   UNL     1      -0.902   1.120   1.728  0.00  0.00    -0.250 OA
BRANCH  10  12
ATOM     12  O   UNL     1      -0.496   2.454  -0.113  0.00  0.00    -0.468 OA
ATOM     13  C   UNL     1      -0.095   3.582   0.655  0.00  0.00    +0.280 C 
ENDBRANCH  10  12
ENDBRANCH   5  10
BRANCH   6  14
ATOM     14  O   UNL     1       1.112  -0.661   0.088  0.00  0.00    -0.457 OA
BRANCH  14  15
ATOM     15  C   UNL     1       1.926  -0.018  -0.854  0.00  0.00    +0.339 C 
ATOM     16  O   UNL     1       1.565   0.050  -2.061  0.00  0.00    -0.245 OA
BRANCH  15  17
ATOM     17  C   UNL     1       3.205   0.587  -0.425  0.00  0.00    +0.059 A 
ATOM     18  C   UNL     1       4.055   1.210  -1.359  0.00  0.00    +0.015 A 
ATOM     19  C   UNL     1       5.259   1.788  -0.944  0.00  0.00    +0.001 A 
ATOM     20  C   UNL     1       5.625   1.752   0.403  0.00  0.00    +0.000 A 
ATOM     21  C   UNL     1       4.789   1.138   1.339  0.00  0.00    +0.001 A 
ATOM     22  C   UNL     1       3.584   0.558   0.929  0.00  0.00    +0.015 A 
ENDBRANCH  15  17
ENDBRANCH  14  15
ENDBRANCH   6  14
TORSDOF 5
