REMARK  Name = 
REMARK  4 active torsions:
REMARK  status: ('A' for Active; 'I' for Inactive)
REMARK    1  A    between atoms: C_4  and  O_5
REMARK    2  A    between atoms: O_5  and  C_6
REMARK    3  A    between atoms: N_14  and  C_15
REMARK    4  A    between atoms: C_21  and  O_22
REMARK                            x       y       z     vdW  Elec       q    Type
REMARK                         _______ _______ _______ _____ _____    ______ ____
ROOT
ATOM      1  C   UNL     1       0.506   1.916   1.092  0.00  0.00    +0.217 C 
ATOM      2  O   UNL     1       1.813   1.328   1.113  0.00  0.00    -0.481 OA
ATOM      3  C   UNL     1       1.767   0.029   0.652  0.00  0.00    +0.167 A 
ATOM      4  C   UNL     1       2.854  -0.782   0.326  0.00  0.00    +0.162 A 
ATOM      5  C   UNL     1       2.586  -1.991  -0.361  0.00  0.00    +0.050 A 
ATOM      6  C   UNL     1       1.271  -2.297  -0.771  0.00  0.00    +0.008 A 
ATOM      7  C   UNL     1       0.205  -1.447  -0.420  0.00  0.00    -0.038 A 
ATOM      8  C   UNL     1       0.485  -0.357   0.408  0.00  0.00    +0.012 A 
ATOM      9  C   UNL     1      -0.480   0.715   0.814  0.00  0.00    +0.048 C 
ATOM     10  C   UNL     1      -1.255   0.278   2.096  0.00  0.00    +0.031 C 
ATOM     11  C   UNL     1      -2.696  -0.186   1.807  0.00  0.00    +0.085 C 
ATOM     12  N   UNL     1      -2.770  -1.038   0.601  0.00  0.00    -0.301 NA
ATOM     13  C   UNL     1      -4.158  -1.459   0.357  0.00  0.00    +0.105 C 
ATOM     14  C   UNL     1      -2.146  -0.463  -0.628  0.00  0.00    +0.068 C 
ATOM     15  C   UNL     1      -1.120  -1.512  -1.145  0.00  0.00    +0.055 C 
ATOM     16  C   UNL     1      -1.465   0.922  -0.359  0.00  0.00    +0.043 C 
ATOM     17  C   UNL     1      -0.748   1.501  -1.560  0.00  0.00    -0.023 C 
ATOM     18  C   UNL     1       0.161   2.470  -1.379  0.00  0.00    +0.004 C 
ATOM     19  C   UNL     1       0.412   3.028   0.009  0.00  0.00    +0.178 C 
ENDROOT
BRANCH   4  20
ATOM     20  O   UNL     1       4.149  -0.360   0.656  0.00  0.00    -0.491 OA
ATOM     21  C   UNL     1       5.330  -1.098   0.357  0.00  0.00    +0.277 C 
ENDBRANCH   4  20
BRANCH  19  22
ATOM     22  O   UNL     1       1.547   3.857   0.028  0.00  0.00    -0.384 OA
ATOM     23  H   UNL     1       2.312   3.331  -0.325  0.00  0.00    +0.210 HD
ENDBRANCH  19  22
TORSDOF 2
