REMARK  Name = 
REMARK  10 active torsions:
REMARK  status: ('A' for Active; 'I' for Inactive)
REMARK    1  A    between atoms: C_1  and  O_2
REMARK    2  A    between atoms: O_2  and  C_3
REMARK    3  A    between atoms: C_7  and  O_8
REMARK    4  A    between atoms: O_8  and  C_9
REMARK    5  A    between atoms: C_10  and  O_11
REMARK    6  A    between atoms: O_11  and  C_12
REMARK    7  A    between atoms: C_16  and  O_17
REMARK    8  A    between atoms: O_17  and  C_18
REMARK    9  A    between atoms: C_23  and  N_26
REMARK   10  A    between atoms: C_27  and  C_28
REMARK                            x       y       z     vdW  Elec       q    Type
REMARK                         _______ _______ _______ _____ _____    ______ ____
ROOT
ATOM      1  C   UNL     1       3.238   0.727   1.123  0.00  0.00    +0.165 A 
ATOM      2  C   UNL     1       2.133   1.193   1.857  0.00  0.00    +0.054 A 
ATOM      3  C   UNL     1       0.842   0.735   1.590  0.00  0.00    -0.032 A 
ATOM      4  C   UNL     1       0.632  -0.220   0.573  0.00  0.00    +0.031 A 
ATOM      5  C   UNL     1       1.720  -0.671  -0.206  0.00  0.00    +0.173 A 
ATOM      6  C   UNL     1       3.034  -0.203   0.068  0.00  0.00    +0.204 A 
ATOM      7  C   UNL     1      -0.755  -0.724   0.288  0.00  0.00    -0.009 A 
ATOM      8  C   UNL     1      -0.906  -2.108   0.435  0.00  0.00    +0.012 A 
ATOM      9  C   UNL     1      -2.007  -2.926   0.233  0.00  0.00    +0.050 A 
ATOM     10  C   UNL     1      -3.315  -2.598  -0.140  0.00  0.00    +0.167 A 
ATOM     11  C   UNL     1      -3.831  -1.300  -0.276  0.00  0.00    +0.221 A 
ATOM     12  O   UNL     1      -5.066  -1.207  -0.548  0.00  0.00    -0.284 OA
ATOM     13  C   UNL     1      -3.161  -0.082  -0.139  0.00  0.00    +0.060 A 
ATOM     14  C   UNL     1      -1.786   0.218   0.013  0.00  0.00    -0.016 A 
ATOM     15  C   UNL     1      -1.382   1.707   0.012  0.00  0.00    +0.104 C 
ATOM     16  C   UNL     1      -1.206   2.228   1.457  0.00  0.00    +0.032 C 
ATOM     17  C   UNL     1      -0.332   1.320   2.346  0.00  0.00    +0.038 C 
ENDROOT
BRANCH  15  18
ATOM     18  N   UNL     1      -2.324   2.561  -0.722  0.00  0.00    -0.309 N 
ATOM     19  C   UNL     1      -2.222   2.783  -2.134  0.00  0.00    +0.210 C 
ATOM     20  C   UNL     1      -3.296   3.520  -2.863  0.00  0.00    +0.109 C 
ATOM     21  O   UNL     1      -1.238   2.336  -2.786  0.00  0.00    -0.276 OA
ATOM     22  H   UNL     1      -3.143   2.966  -0.215  0.00  0.00    +0.149 HD
ENDBRANCH  15  18
BRANCH   1  24
ATOM     23  C   UNL     1       4.864   2.103   2.459  0.00  0.00    +0.277 C 
ATOM     24  O   UNL     1       4.536   1.175   1.427  0.00  0.00    -0.491 OA
ENDBRANCH   1  24
BRANCH   5  25
ATOM     25  O   UNL     1       1.419  -1.570  -1.253  0.00  0.00    -0.491 OA
ATOM     26  C   UNL     1       2.329  -2.182  -2.162  0.00  0.00    +0.277 C 
ENDBRANCH   5  25
BRANCH   6  27
ATOM     27  O   UNL     1       4.087  -0.677  -0.732  0.00  0.00    -0.488 OA
ATOM     28  C   UNL     1       5.474  -0.336  -0.644  0.00  0.00    +0.277 C 
ENDBRANCH   6  27
BRANCH  10  29
ATOM     29  O   UNL     1      -4.242  -3.638  -0.380  0.00  0.00    -0.491 OA
ATOM     30  C   UNL     1      -3.989  -5.036  -0.263  0.00  0.00    +0.277 C 
ENDBRANCH  10  29
TORSDOF 5
