REMARK  Name = 
REMARK  13 active torsions:
REMARK  status: ('A' for Active; 'I' for Inactive)
REMARK    1  A    between atoms: C_2  and  C_3
REMARK    2  A    between atoms: N_6  and  C_7
REMARK    3  A    between atoms: C_7  and  C_8
REMARK    4  A    between atoms: C_8  and  N_9
REMARK    5  A    between atoms: N_9  and  C_10
REMARK    6  A    between atoms: C_10  and  C_11
REMARK    7  A    between atoms: C_11  and  N_12
REMARK    8  A    between atoms: N_12  and  C_13
REMARK    9  A    between atoms: C_13  and  C_14
REMARK   10  A    between atoms: C_14  and  N_15
REMARK   11  A    between atoms: N_15  and  C_16
REMARK   12  A    between atoms: C_16  and  C_17
REMARK   13  A    between atoms: C_17  and  N_18
REMARK                            x       y       z     vdW  Elec       q    Type
REMARK                         _______ _______ _______ _____ _____    ______ ____
ROOT
ATOM      1  C   UNL     1      -0.311  -0.215   0.520  0.00  0.00    +0.158 C 
ATOM      2  C   UNL     1      -1.186   0.484  -0.447  0.00  0.00    +0.193 C 
ATOM      3  O   UNL     1      -0.612   1.154   0.653  0.00  0.00    -0.371 OA
ENDROOT
BRANCH   1   5
ATOM      4 CL   UNL     1       2.063   0.965  -0.362  0.00  0.00    -0.123 Cl
ATOM      5  C   UNL     1       1.122  -0.501   0.048  0.00  0.00    +0.142 C 
ENDBRANCH   1   5
TORSDOF 1
REMARK  Name = 
REMARK  13 active torsions:
REMARK  status: ('A' for Active; 'I' for Inactive)
REMARK    1  A    between atoms: C_2  and  C_3
REMARK    2  A    between atoms: N_6  and  C_7
REMARK    3  A    between atoms: C_7  and  C_8
REMARK    4  A    between atoms: C_8  and  N_9
REMARK    5  A    between atoms: N_9  and  C_10
REMARK    6  A    between atoms: C_10  and  C_11
REMARK    7  A    between atoms: C_11  and  N_12
REMARK    8  A    between atoms: N_12  and  C_13
REMARK    9  A    between atoms: C_13  and  C_14
REMARK   10  A    between atoms: C_14  and  N_15
REMARK   11  A    between atoms: N_15  and  C_16
REMARK   12  A    between atoms: C_16  and  C_17
REMARK   13  A    between atoms: C_17  and  N_18
REMARK                            x       y       z     vdW  Elec       q    Type
REMARK                         _______ _______ _______ _____ _____    ______ ____
ROOT
ATOM      1  N   UNL     1      -0.080   0.089  -0.142  0.00  0.00    -0.314 NA
ATOM      2  H   UNL     1      -0.275  -0.841   0.300  0.00  0.00    +0.122 HD
ENDROOT
BRANCH   1   3
ATOM      3  C   UNL     1       0.970   0.747   0.644  0.00  0.00    +0.096 C 
BRANCH   3   4
ATOM      4  C   UNL     1       2.283  -0.026   0.518  0.00  0.00    +0.096 C 
BRANCH   4   5
ATOM      5  N   UNL     1       3.344   0.663   1.265  0.00  0.00    -0.314 NA
ATOM      6  H   UNL     1       3.122   0.570   2.284  0.00  0.00    +0.122 HD
BRANCH   5   7
ATOM      7  C   UNL     1       4.655   0.038   1.035  0.00  0.00    +0.096 C 
BRANCH   7   8
ATOM      8  C   UNL     1       5.343   0.667  -0.179  0.00  0.00    +0.092 C 
BRANCH   8   9
ATOM      9  N   UNL     1       6.688   0.124  -0.332  0.00  0.00    -0.329 NA
ATOM     10  H   UNL     1       7.149   0.634  -1.120  0.00  0.00    +0.118 HD
ATOM     11  H   UNL     1       6.605  -0.875  -0.633  0.00  0.00    +0.118 HD
ENDBRANCH   8   9
ENDBRANCH   7   8
ENDBRANCH   5   7
ENDBRANCH   4   5
ENDBRANCH   3   4
ENDBRANCH   1   3
BRANCH   1  12
ATOM     12  C   UNL     1      -1.319   0.874  -0.098  0.00  0.00    +0.096 C 
BRANCH  12  13
ATOM     13  C   UNL     1      -2.378   0.231  -0.995  0.00  0.00    +0.096 C 
BRANCH  13  14
ATOM     14  N   UNL     1      -3.596   1.055  -1.016  0.00  0.00    -0.314 NA
ATOM     15  H   UNL     1      -4.068   0.945  -1.945  0.00  0.00    +0.122 HD
BRANCH  14  16
ATOM     16  C   UNL     1      -4.531   0.726   0.078  0.00  0.00    +0.096 C 
BRANCH  16  17
ATOM     17  C   UNL     1      -5.656  -0.223  -0.365  0.00  0.00    +0.092 C 
BRANCH  17  18
ATOM     18  N   UNL     1      -5.122  -1.524  -0.756  0.00  0.00    -0.329 NA
ATOM     19  H   UNL     1      -4.776  -2.006   0.105  0.00  0.00    +0.118 HD
ATOM     20  H   UNL     1      -5.918  -2.099  -1.118  0.00  0.00    +0.118 HD
ENDBRANCH  17  18
ENDBRANCH  16  17
ENDBRANCH  14  16
ENDBRANCH  13  14
ENDBRANCH  12  13
ENDBRANCH   1  12
TORSDOF 12
