REMARK  Name = 
REMARK  43 active torsions:
REMARK  status: ('A' for Active; 'I' for Inactive)
REMARK    1  A    between atoms: C_2  and  C_80
REMARK    2  A    between atoms: C_6  and  C_7
REMARK    3  A    between atoms: C_7  and  C_8
REMARK    4  A    between atoms: C_8  and  N_9
REMARK    5  A    between atoms: C_13  and  C_14
REMARK    6  A    between atoms: C_14  and  C_15
REMARK    7  A    between atoms: C_15  and  N_16
REMARK    8  A    between atoms: C_20  and  C_21
REMARK    9  A    between atoms: C_21  and  C_22
REMARK   10  A    between atoms: C_22  and  C_23
REMARK   11  A    between atoms: C_22  and  C_24
REMARK   12  A    between atoms: C_28  and  C_29
REMARK   13  A    between atoms: C_29  and  C_30
REMARK   14  A    between atoms: C_30  and  C_31
REMARK   15  A    between atoms: C_30  and  C_32
REMARK   16  A    between atoms: C_36  and  C_37
REMARK   17  A    between atoms: C_37  and  C_38
REMARK   18  A    between atoms: C_38  and  N_39
REMARK   19  A    between atoms: C_43  and  N_49
REMARK   20  A    between atoms: C_50  and  C_52
REMARK   21  A    between atoms: C_52  and  C_53
REMARK   22  A    between atoms: C_52  and  N_56
REMARK   23  A    between atoms: C_53  and  C_54
REMARK   24  A    between atoms: C_54  and  N_55
REMARK   25  A    between atoms: C_57  and  C_59
REMARK   26  A    between atoms: C_59  and  N_60
REMARK   27  A    between atoms: C_59  and  C_77
REMARK   28  A    between atoms: C_61  and  C_63
REMARK   29  A    between atoms: C_63  and  C_64
REMARK   30  A    between atoms: C_63  and  N_67
REMARK   31  A    between atoms: C_64  and  C_65
REMARK   32  A    between atoms: C_65  and  N_66
REMARK   33  A    between atoms: C_68  and  C_70
REMARK   34  A    between atoms: C_70  and  C_71
REMARK   35  A    between atoms: C_71  and  C_72
REMARK   36  A    between atoms: C_72  and  C_73
REMARK   37  A    between atoms: C_73  and  C_74
REMARK   38  A    between atoms: C_73  and  C_75
REMARK   39  A    between atoms: C_75  and  C_76
REMARK   40  A    between atoms: C_77  and  C_78
REMARK   41  A    between atoms: C_77  and  O_79
REMARK   42  A    between atoms: C_80  and  C_81
REMARK   43  A    between atoms: C_80  and  O_82
REMARK                            x       y       z     vdW  Elec       q    Type
REMARK                         _______ _______ _______ _____ _____    ______ ____
ROOT
ATOM      1  C   UNL     1      11.686  -9.441  -1.261  0.00  0.00    +0.187 C 
ATOM      2  N   UNL     1      10.970  -8.671   0.896  0.00  0.00    -0.300 N 
ATOM      3  C   UNL     1      10.829  -9.793   1.572  0.00  0.00    +0.234 C 
ATOM      4  O   UNL     1      11.005 -10.326   2.626  0.00  0.00    -0.274 OA
ATOM      5  C   UNL     1      10.955 -10.404   0.257  0.00  0.00    +0.160 C 
ATOM      6  N   UNL     1      12.590 -10.147  -0.335  0.00  0.00    -0.302 N 
ATOM      7  C   UNL     1      13.642 -10.308  -0.844  0.00  0.00    +0.234 C 
ATOM      8  O   UNL     1      14.531  -9.380  -1.856  0.00  0.00    -0.274 OA
ATOM      9  C   UNL     1      13.507 -11.780  -0.833  0.00  0.00    +0.160 C 
ATOM     10  N   UNL     1      12.401 -12.344  -1.601  0.00  0.00    -0.302 N 
ATOM     11  C   UNL     1      12.562 -13.102  -2.580  0.00  0.00    +0.234 C 
ATOM     12  O   UNL     1      11.593 -13.589  -3.057  0.00  0.00    -0.274 OA
ATOM     13  C   UNL     1      14.028 -13.442  -2.809  0.00  0.00    +0.159 C 
ATOM     14  N   UNL     1      14.847 -14.117  -1.832  0.00  0.00    -0.302 N 
ATOM     15  C   UNL     1      15.521 -15.373  -1.732  0.00  0.00    +0.234 C 
ATOM     16  O   UNL     1      16.252 -15.755  -0.911  0.00  0.00    -0.274 OA
ATOM     17  C   UNL     1      15.515 -16.701  -3.213  0.00  0.00    +0.159 C 
ATOM     18  N   UNL     1      16.079 -15.506  -4.146  0.00  0.00    -0.302 N 
ATOM     19  C   UNL     1      16.254 -15.934  -5.259  0.00  0.00    +0.234 C 
ATOM     20  O   UNL     1      16.514 -14.726  -6.540  0.00  0.00    -0.274 OA
ATOM     21  C   UNL     1      17.613 -17.326  -4.668  0.00  0.00    +0.160 C 
ATOM     22  N   UNL     1      16.624 -18.379  -4.903  0.00  0.00    -0.302 N 
ATOM     23  C   UNL     1      16.541 -19.466  -5.641  0.00  0.00    +0.234 C 
ATOM     24  O   UNL     1      15.789 -20.325  -5.920  0.00  0.00    -0.274 OA
ATOM     25  C   UNL     1      17.682 -19.264  -6.143  0.00  0.00    +0.160 C 
ATOM     26  C   UNL     1      17.395 -16.860  -6.420  0.00  0.00    +0.050 C 
ATOM     27  C   UNL     1      16.879 -14.529  -5.093  0.00  0.00    +0.106 C 
ATOM     28  N   UNL     1      15.407 -12.720  -3.786  0.00  0.00    -0.314 N 
ATOM     29  C   UNL     1      13.604 -10.970  -2.627  0.00  0.00    +0.236 C 
ATOM     30  O   UNL     1      13.039  -9.402  -2.234  0.00  0.00    -0.274 OA
ATOM     31  H   UNL     1      10.394  -8.100   2.374  0.00  0.00    +0.150 HD
ATOM     32  H   UNL     1      12.743  -8.698  -1.001  0.00  0.00    +0.150 HD
ATOM     33  H   UNL     1      11.449 -12.135  -1.595  0.00  0.00    +0.150 HD
ATOM     34  H   UNL     1      14.769 -13.691  -0.988  0.00  0.00    +0.150 HD
ATOM     35  H   UNL     1      15.692 -14.374  -4.516  0.00  0.00    +0.150 HD
ATOM     36  H   UNL     1      15.863 -18.332  -4.338  0.00  0.00    +0.150 HD
ATOM     37  H   UNL     1      16.489 -13.820  -3.680  0.00  0.00    +0.149 HD
ENDROOT
BRANCH  25  38
ATOM     38  N   UNL     1      17.532 -20.757  -7.445  0.00  0.00    -0.302 N 
ATOM     39  C   UNL     1      17.488 -20.518  -8.833  0.00  0.00    +0.234 C 
ATOM     40  O   UNL     1      17.822 -21.618  -9.098  0.00  0.00    -0.274 OA
ATOM     41  H   UNL     1      18.078 -21.663  -7.129  0.00  0.00    +0.150 HD
BRANCH  39  42
ATOM     42  C   UNL     1      17.342 -19.283  -9.597  0.00  0.00    +0.160 C 
BRANCH  42  43
ATOM     43  N   UNL     1      15.949 -18.886  -9.495  0.00  0.00    -0.302 N 
ATOM     44  C   UNL     1      15.125 -18.615 -10.583  0.00  0.00    +0.236 C 
ATOM     45  O   UNL     1      13.940 -18.331 -10.504  0.00  0.00    -0.274 OA
ATOM     46  H   UNL     1      15.559 -18.814  -8.553  0.00  0.00    +0.150 HD
BRANCH  44  47
ATOM     47  C   UNL     1      15.660 -18.624 -11.910  0.00  0.00    +0.187 C 
BRANCH  47  48
ATOM     48  N   UNL     1      16.851 -17.818 -12.130  0.00  0.00    -0.300 N 
ATOM     49  C   UNL     1      18.185 -18.227 -11.991  0.00  0.00    +0.234 C 
ATOM     50  O   UNL     1      19.128 -17.399 -12.310  0.00  0.00    -0.274 OA
ATOM     51  H   UNL     1      16.715 -16.831 -12.087  0.00  0.00    +0.150 HD
BRANCH  49  52
ATOM     52  C   UNL     1      18.345 -19.809 -12.474  0.00  0.00    +0.160 C 
BRANCH  52  53
ATOM     53  N   UNL     1      17.815 -20.877 -11.855  0.00  0.00    -0.304 N 
ATOM     54  C   UNL     1      17.960 -21.690 -10.941  0.00  0.00    +0.214 C 
ATOM     55  O   UNL     1      16.890 -22.316 -10.495  0.00  0.00    -0.276 OA
ATOM     56  H   UNL     1      16.888 -21.094 -12.045  0.00  0.00    +0.149 HD
BRANCH  54  57
ATOM     57  C   UNL     1      19.440 -21.663 -10.479  0.00  0.00    +0.096 C 
BRANCH  57  58
ATOM     58  C   UNL     1      20.147 -22.190 -11.671  0.00  0.00    +0.009 C 
BRANCH  58  59
ATOM     59  C   UNL     1      20.117 -21.303 -12.821  0.00  0.00    +0.004 C 
BRANCH  59  60
ATOM     60  C   UNL     1      20.714 -19.806 -12.492  0.00  0.00    -0.014 C 
ATOM     61  C   UNL     1      22.065 -19.990 -12.156  0.00  0.00    +0.007 C 
BRANCH  60  62
ATOM     62  C   UNL     1      20.421 -18.853 -13.633  0.00  0.00    -0.000 C 
ATOM     63  C   UNL     1      19.100 -18.483 -14.054  0.00  0.00    +0.004 C 
ENDBRANCH  60  62
ENDBRANCH  59  60
ENDBRANCH  58  59
ENDBRANCH  57  58
ENDBRANCH  54  57
ENDBRANCH  52  53
BRANCH  52  64
ATOM     64  C   UNL     1      18.322 -20.554 -14.311  0.00  0.00    +0.046 C 
BRANCH  64  65
ATOM     65  C   UNL     1      17.061 -20.803 -14.761  0.00  0.00    +0.080 C 
BRANCH  65  66
ATOM     66  N   UNL     1      15.970 -19.175 -14.491  0.00  0.00    -0.330 NA
ATOM     67  H   UNL     1      14.981 -19.584 -14.360  0.00  0.00    +0.118 HD
ATOM     68  H   UNL     1      16.256 -19.010 -13.442  0.00  0.00    +0.118 HD
ENDBRANCH  65  66
ENDBRANCH  64  65
ENDBRANCH  52  64
ENDBRANCH  49  52
ENDBRANCH  47  48
BRANCH  47  69
ATOM     69  C   UNL     1      15.820 -19.996 -12.077  0.00  0.00    +0.141 C 
ATOM     70  C   UNL     1      15.020 -21.185 -12.075  0.00  0.00    +0.040 C 
BRANCH  69  71
ATOM     71  O   UNL     1      16.580 -20.199 -13.107  0.00  0.00    -0.390 OA
ATOM     72  H   UNL     1      15.993 -20.235 -13.972  0.00  0.00    +0.210 HD
ENDBRANCH  69  71
ENDBRANCH  47  69
ENDBRANCH  44  47
ENDBRANCH  42  43
BRANCH  42  73
ATOM     73  C   UNL     1      18.293 -18.309  -9.240  0.00  0.00    +0.046 C 
BRANCH  73  74
ATOM     74  C   UNL     1      18.771 -18.936  -7.532  0.00  0.00    +0.080 C 
BRANCH  74  75
ATOM     75  N   UNL     1      19.518 -20.069  -7.415  0.00  0.00    -0.330 NA
ATOM     76  H   UNL     1      19.325 -20.460  -6.483  0.00  0.00    +0.118 HD
ATOM     77  H   UNL     1      18.759 -20.568  -7.831  0.00  0.00    +0.118 HD
ENDBRANCH  74  75
ENDBRANCH  73  74
ENDBRANCH  42  73
ENDBRANCH  39  42
ENDBRANCH  25  38
BRANCH   1  78
ATOM     78  C   UNL     1       9.972  -7.881  -0.023  0.00  0.00    +0.141 C 
ATOM     79  C   UNL     1       8.248  -6.346  -0.086  0.00  0.00    +0.040 C 
BRANCH  78  80
ATOM     80  O   UNL     1       8.574  -8.412   0.033  0.00  0.00    -0.390 OA
ATOM     81  H   UNL     1       8.850  -8.250  -0.864  0.00  0.00    +0.210 HD
ENDBRANCH  78  80
ENDBRANCH   1  78
BRANCH   5  82
ATOM     82  C   UNL     1      11.269 -11.720   0.325  0.00  0.00    +0.046 C 
BRANCH  82  83
ATOM     83  C   UNL     1      10.567 -12.312   1.362  0.00  0.00    +0.080 C 
BRANCH  83  84
ATOM     84  N   UNL     1       9.176 -11.949   1.175  0.00  0.00    -0.330 NA
ATOM     85  H   UNL     1       8.657 -12.306   1.964  0.00  0.00    +0.118 HD
ATOM     86  H   UNL     1       9.057 -10.926   1.173  0.00  0.00    +0.118 HD
ENDBRANCH  83  84
ENDBRANCH  82  83
ENDBRANCH   5  82
BRANCH   9  87
ATOM     87  C   UNL     1      14.856 -11.901  -1.354  0.00  0.00    +0.046 C 
BRANCH  87  88
ATOM     88  C   UNL     1      15.563 -10.843  -0.780  0.00  0.00    +0.080 C 
BRANCH  88  89
ATOM     89  N   UNL     1      15.411 -10.887   0.621  0.00  0.00    -0.330 NA
ATOM     90  H   UNL     1      15.786 -10.032   0.994  0.00  0.00    +0.118 HD
ATOM     91  H   UNL     1      14.435 -10.927   0.944  0.00  0.00    +0.118 HD
ENDBRANCH  88  89
ENDBRANCH  87  88
ENDBRANCH   9  87
BRANCH  13  92
ATOM     92  C   UNL     1      14.338 -14.740  -4.454  0.00  0.00    +0.034 C 
BRANCH  92  93
ATOM     93  C   UNL     1      14.418 -15.490  -3.508  0.00  0.00    -0.015 C 
ATOM     94  C   UNL     1      13.078 -16.262  -2.181  0.00  0.00    +0.007 C 
ATOM     95  C   UNL     1      14.593 -16.802  -5.202  0.00  0.00    +0.007 C 
ENDBRANCH  92  93
ENDBRANCH  13  92
BRANCH  17  96
ATOM     96  C   UNL     1      13.772 -16.950  -3.694  0.00  0.00    +0.034 C 
BRANCH  96  97
ATOM     97  C   UNL     1      12.776 -15.106  -3.775  0.00  0.00    -0.015 C 
ATOM     98  C   UNL     1      13.591 -13.795  -5.483  0.00  0.00    +0.007 C 
ATOM     99  C   UNL     1      11.447 -15.450  -4.072  0.00  0.00    +0.007 C 
ENDBRANCH  96  97
ENDBRANCH  17  96
BRANCH  21 100
ATOM    100  C   UNL     1      18.907 -17.430  -5.488  0.00  0.00    +0.046 C 
BRANCH 100 101
ATOM    101  C   UNL     1      19.032 -16.374  -7.154  0.00  0.00    +0.080 C 
BRANCH 101 102
ATOM    102  N   UNL     1      18.782 -15.052  -6.698  0.00  0.00    -0.330 NA
ATOM    103  H   UNL     1      18.223 -14.796  -7.666  0.00  0.00    +0.118 HD
ATOM    104  H   UNL     1      17.379 -15.059  -6.107  0.00  0.00    +0.118 HD
ENDBRANCH 101 102
ENDBRANCH 100 101
ENDBRANCH  21 100
TORSDOF 35
