REMARK  Name = 
REMARK  54 active torsions:
REMARK  status: ('A' for Active; 'I' for Inactive)
REMARK    1  A    between atoms: C_1  and  C_2
REMARK    2  A    between atoms: C_2  and  C_3
REMARK    3  A    between atoms: C_3  and  C_4
REMARK    4  A    between atoms: C_3  and  C_5
REMARK    5  A    between atoms: C_5  and  C_6
REMARK    6  A    between atoms: C_6  and  C_7
REMARK    7  A    between atoms: C_7  and  C_8
REMARK    8  A    between atoms: C_8  and  C_9
REMARK    9  A    between atoms: N_11  and  C_12
REMARK   10  A    between atoms: C_12  and  C_13
REMARK   11  A    between atoms: C_12  and  C_21
REMARK   12  A    between atoms: C_13  and  C_14
REMARK   13  A    between atoms: C_14  and  N_15
REMARK   14  A    between atoms: N_15  and  C_16
REMARK   15  A    between atoms: C_16  and  S_17
REMARK   16  A    between atoms: N_23  and  C_24
REMARK   17  A    between atoms: C_24  and  C_25
REMARK   18  A    between atoms: C_24  and  C_28
REMARK   19  A    between atoms: C_25  and  C_26
REMARK   20  A    between atoms: C_25  and  O_27
REMARK   21  A    between atoms: N_30  and  C_31
REMARK   22  A    between atoms: C_31  and  C_32
REMARK   23  A    between atoms: C_31  and  C_40
REMARK   24  A    between atoms: C_32  and  C_33
REMARK   25  A    between atoms: C_33  and  N_34
REMARK   26  A    between atoms: N_34  and  C_35
REMARK   27  A    between atoms: C_35  and  S_36
REMARK   28  A    between atoms: N_42  and  C_43
REMARK   29  A    between atoms: C_49  and  C_105
REMARK   30  A    between atoms: C_53  and  C_54
REMARK   31  A    between atoms: C_54  and  C_55
REMARK   32  A    between atoms: C_55  and  N_56
REMARK   33  A    between atoms: N_56  and  C_57
REMARK   34  A    between atoms: C_57  and  S_58
REMARK   35  A    between atoms: C_65  and  C_66
REMARK   36  A    between atoms: C_66  and  C_67
REMARK   37  A    between atoms: C_67  and  N_68
REMARK   38  A    between atoms: N_68  and  C_69
REMARK   39  A    between atoms: C_69  and  S_70
REMARK   40  A    between atoms: C_77  and  C_78
REMARK   41  A    between atoms: C_78  and  C_79
REMARK   42  A    between atoms: C_79  and  C_80
REMARK   43  A    between atoms: C_79  and  C_81
REMARK   44  A    between atoms: C_85  and  C_86
REMARK   45  A    between atoms: C_86  and  C_87
REMARK   46  A    between atoms: C_87  and  C_88
REMARK   47  A    between atoms: C_87  and  C_89
REMARK   48  A    between atoms: C_93  and  C_94
REMARK   49  A    between atoms: C_94  and  C_95
REMARK   50  A    between atoms: C_95  and  N_96
REMARK   51  A    between atoms: N_96  and  C_97
REMARK   52  A    between atoms: C_97  and  S_98
REMARK   53  A    between atoms: C_105  and  C_106
REMARK   54  A    between atoms: C_105  and  O_107
REMARK                            x       y       z     vdW  Elec       q    Type
REMARK                         _______ _______ _______ _____ _____    ______ ____
ROOT
ATOM      1  C   UNL     1      -7.885   1.696  12.988  0.00  0.00    +0.160 C 
ATOM      2  C   UNL     1      -7.503   0.603  10.967  0.00  0.00    +0.050 C 
ATOM      3  C   UNL     1      -6.688   2.055  10.208  0.00  0.00    +0.106 C 
ATOM      4  N   UNL     1      -6.314   2.474   8.916  0.00  0.00    -0.314 N 
ATOM      5  C   UNL     1      -6.730   3.158   7.978  0.00  0.00    +0.236 C 
ATOM      6  O   UNL     1      -6.021   3.010   6.826  0.00  0.00    -0.274 OA
ATOM      7  C   UNL     1      -8.554   3.837   8.134  0.00  0.00    +0.187 C 
ATOM      8  N   UNL     1      -9.889   3.458   8.098  0.00  0.00    -0.300 N 
ATOM      9  C   UNL     1     -10.729   3.428   9.724  0.00  0.00    +0.234 C 
ATOM     10  O   UNL     1     -11.314   2.331  10.089  0.00  0.00    -0.274 OA
ATOM     11  C   UNL     1      -9.637   4.311  10.928  0.00  0.00    +0.160 C 
ATOM     12  N   UNL     1     -10.080   5.500  10.706  0.00  0.00    -0.302 N 
ATOM     13  C   UNL     1     -10.431   6.457  11.297  0.00  0.00    +0.234 C 
ATOM     14  O   UNL     1     -10.295   7.481  10.714  0.00  0.00    -0.274 OA
ATOM     15  C   UNL     1     -11.031   5.875  12.516  0.00  0.00    +0.160 C 
ATOM     16  N   UNL     1     -10.111   5.539  13.499  0.00  0.00    -0.302 N 
ATOM     17  C   UNL     1      -9.822   6.184  14.540  0.00  0.00    +0.234 C 
ATOM     18  O   UNL     1      -8.927   5.664  15.227  0.00  0.00    -0.274 OA
ATOM     19  C   UNL     1     -10.709   7.479  14.833  0.00  0.00    +0.159 C 
ATOM     20  N   UNL     1     -12.151   7.652  14.741  0.00  0.00    -0.302 N 
ATOM     21  C   UNL     1     -13.516   7.721  16.030  0.00  0.00    +0.234 C 
ATOM     22  O   UNL     1     -14.517   6.843  16.164  0.00  0.00    -0.274 OA
ATOM     23  C   UNL     1     -12.548   7.860  17.164  0.00  0.00    +0.159 C 
ATOM     24  N   UNL     1     -11.894   9.035  17.102  0.00  0.00    -0.302 N 
ATOM     25  C   UNL     1     -12.025   9.247  18.254  0.00  0.00    +0.234 C 
ATOM     26  O   UNL     1     -11.903  10.904  18.056  0.00  0.00    -0.274 OA
ATOM     27  C   UNL     1     -11.687   6.880  17.651  0.00  0.00    +0.160 C 
ATOM     28  N   UNL     1     -10.533   5.021  16.212  0.00  0.00    -0.302 N 
ATOM     29  C   UNL     1      -9.281   3.298  14.659  0.00  0.00    +0.234 C 
ATOM     30  O   UNL     1      -8.906   1.744  14.171  0.00  0.00    -0.274 OA
ATOM     31  H   UNL     1      -5.851   1.968   8.353  0.00  0.00    +0.149 HD
ATOM     32  H   UNL     1      -9.901   2.463   7.810  0.00  0.00    +0.150 HD
ATOM     33  H   UNL     1      -9.744   5.824   9.822  0.00  0.00    +0.150 HD
ATOM     34  H   UNL     1      -9.450   4.874  13.365  0.00  0.00    +0.150 HD
ATOM     35  H   UNL     1     -12.587   6.650  14.429  0.00  0.00    +0.150 HD
ATOM     36  H   UNL     1     -11.230   9.383  16.664  0.00  0.00    +0.150 HD
ATOM     37  H   UNL     1     -11.149   5.675  17.224  0.00  0.00    +0.150 HD
ENDROOT
BRANCH   1  40
ATOM     38  C   UNL     1      -4.513   0.170  11.004  0.00  0.00    +0.234 C 
ATOM     39  O   UNL     1      -3.533   0.329  11.756  0.00  0.00    -0.274 OA
ATOM     40  N   UNL     1      -6.272   0.387  11.918  0.00  0.00    -0.302 N 
ATOM     41  H   UNL     1      -5.888  -0.416  12.376  0.00  0.00    +0.150 HD
BRANCH  38  42
ATOM     42  C   UNL     1      -4.143   0.201   9.303  0.00  0.00    +0.160 C 
BRANCH  42  45
ATOM     43  C   UNL     1      -3.652  -1.843   7.230  0.00  0.00    +0.236 C 
ATOM     44  O   UNL     1      -3.261  -3.220   7.187  0.00  0.00    -0.274 OA
ATOM     45  N   UNL     1      -4.651  -0.976   8.477  0.00  0.00    -0.302 N 
ATOM     46  H   UNL     1      -5.336  -1.623   8.667  0.00  0.00    +0.150 HD
BRANCH  43  47
ATOM     47  C   UNL     1      -1.579  -1.152   8.024  0.00  0.00    +0.187 C 
BRANCH  47  50
ATOM     48  C   UNL     1      -0.809   0.339   6.180  0.00  0.00    +0.234 C 
ATOM     49  O   UNL     1      -0.844   1.370   5.553  0.00  0.00    -0.274 OA
ATOM     50  N   UNL     1      -1.467   0.257   7.411  0.00  0.00    -0.300 N 
ATOM     51  H   UNL     1      -2.261   0.831   7.666  0.00  0.00    +0.150 HD
BRANCH  48  52
ATOM     52  C   UNL     1      -0.046  -0.883   5.827  0.00  0.00    +0.160 C 
BRANCH  52  55
ATOM     53  C   UNL     1       2.432  -1.213   6.453  0.00  0.00    +0.214 C 
ATOM     54  O   UNL     1       3.255  -1.549   7.308  0.00  0.00    -0.276 OA
ATOM     55  N   UNL     1       1.050  -1.287   6.694  0.00  0.00    -0.304 N 
ATOM     56  H   UNL     1       0.708  -1.649   7.572  0.00  0.00    +0.149 HD
BRANCH  53  57
ATOM     57  C   UNL     1       2.939  -0.705   5.091  0.00  0.00    +0.096 C 
BRANCH  57  58
ATOM     58  C   UNL     1       2.468  -1.597   3.962  0.00  0.00    +0.009 C 
BRANCH  58  59
ATOM     59  C   UNL     1       1.017  -1.629   3.818  0.00  0.00    +0.001 C 
BRANCH  59  60
ATOM     60  C   UNL     1       0.413  -0.121   3.568  0.00  0.00    +0.003 C 
BRANCH  60  61
ATOM     61  C   UNL     1       0.926   0.364   2.349  0.00  0.00    -0.014 C 
ATOM     62  C   UNL     1       0.421   1.754   2.185  0.00  0.00    +0.007 C 
BRANCH  61  64
ATOM     63  C   UNL     1       0.921  -0.056  -0.042  0.00  0.00    +0.004 C 
ATOM     64  C   UNL     1       0.424  -0.552   1.277  0.00  0.00    -0.000 C 
ENDBRANCH  61  64
ENDBRANCH  60  61
ENDBRANCH  59  60
ENDBRANCH  58  59
ENDBRANCH  57  58
ENDBRANCH  53  57
ENDBRANCH  52  55
BRANCH  52  65
ATOM     65  C   UNL     1      -0.885  -2.098   5.255  0.00  0.00    +0.047 C 
BRANCH  65  66
ATOM     66  C   UNL     1      -1.529  -2.663   6.318  0.00  0.00    +0.085 C 
BRANCH  66  67
ATOM     67  N   UNL     1      -2.321  -1.505   6.594  0.00  0.00    -0.296 NA
ATOM     68  H   UNL     1      -2.054  -0.605   6.825  0.00  0.00    +0.124 HD
BRANCH  67  69
ATOM     69  C   UNL     1      -3.108  -2.058   8.631  0.00  0.00    +0.284 C 
BRANCH  69  70
ATOM     70  S   UNL     1      -2.110  -2.561   9.529  0.00  0.00    +0.123 S 
ATOM     71  O   UNL     1      -1.102  -1.314  10.711  0.00  0.00    -0.046 OA
ATOM     72  O   UNL     1      -2.974  -2.953  10.669  0.00  0.00    -0.144 OA
ATOM     73  O   UNL     1      -1.222  -3.628   8.847  0.00  0.00    -0.144 OA
ENDBRANCH  69  70
ENDBRANCH  67  69
ENDBRANCH  66  67
ENDBRANCH  65  66
ENDBRANCH  52  65
ENDBRANCH  48  52
ENDBRANCH  47  50
BRANCH  47  74
ATOM     74  C   UNL     1      -1.026  -0.906   9.205  0.00  0.00    +0.141 C 
ATOM     75  C   UNL     1      -2.102  -0.012  10.199  0.00  0.00    +0.040 C 
BRANCH  74  76
ATOM     76  O   UNL     1      -0.605  -2.677  10.356  0.00  0.00    -0.390 OA
ATOM     77  H   UNL     1      -1.750  -2.979  10.865  0.00  0.00    +0.210 HD
ENDBRANCH  74  76
ENDBRANCH  47  74
ENDBRANCH  43  47
ENDBRANCH  42  45
BRANCH  42  78
ATOM     78  C   UNL     1      -4.628   1.185   8.582  0.00  0.00    +0.047 C 
BRANCH  78  79
ATOM     79  C   UNL     1      -6.241   0.542   8.527  0.00  0.00    +0.085 C 
BRANCH  79  80
ATOM     80  N   UNL     1      -6.571   0.386   9.706  0.00  0.00    -0.296 NA
ATOM     81  H   UNL     1      -5.943   0.132  10.485  0.00  0.00    +0.124 HD
BRANCH  80  82
ATOM     82  C   UNL     1      -8.704  -0.072  10.213  0.00  0.00    +0.284 C 
BRANCH  82  83
ATOM     83  S   UNL     1      -8.423  -1.503   9.429  0.00  0.00    +0.123 S 
ATOM     84  O   UNL     1      -7.523  -2.405  10.198  0.00  0.00    -0.046 OA
ATOM     85  O   UNL     1      -9.848  -1.599   9.610  0.00  0.00    -0.144 OA
ATOM     86  O   UNL     1      -7.997  -1.165   8.038  0.00  0.00    -0.144 OA
ENDBRANCH  82  83
ENDBRANCH  80  82
ENDBRANCH  79  80
ENDBRANCH  78  79
ENDBRANCH  42  78
ENDBRANCH  38  42
ENDBRANCH   1  40
BRANCH   7  87
ATOM     87  C   UNL     1      -8.305   4.742   9.072  0.00  0.00    +0.141 C 
ATOM     88  C   UNL     1      -6.502   6.234   9.099  0.00  0.00    +0.040 C 
BRANCH  87  89
ATOM     89  O   UNL     1      -8.748   5.757   9.727  0.00  0.00    -0.390 OA
ATOM     90  H   UNL     1      -9.203   6.407   8.867  0.00  0.00    +0.210 HD
ENDBRANCH  87  89
ENDBRANCH   7  87
BRANCH  15  91
ATOM     91  C   UNL     1     -12.143   4.989  12.251  0.00  0.00    +0.047 C 
BRANCH  91  92
ATOM     92  C   UNL     1     -11.624   3.769  11.789  0.00  0.00    +0.085 C 
BRANCH  92  93
ATOM     93  N   UNL     1     -10.619   3.085  12.758  0.00  0.00    -0.296 NA
ATOM     94  H   UNL     1      -9.808   3.740  12.911  0.00  0.00    +0.124 HD
BRANCH  93  95
ATOM     95  C   UNL     1      -9.981   2.066  11.963  0.00  0.00    +0.284 C 
BRANCH  95  96
ATOM     96  S   UNL     1      -8.839   2.338  10.674  0.00  0.00    +0.123 S 
ATOM     97  O   UNL     1      -7.144   3.230  11.399  0.00  0.00    -0.046 OA
ATOM     98  O   UNL     1      -8.392   1.692   9.461  0.00  0.00    -0.144 OA
ATOM     99  O   UNL     1      -9.371   2.538   9.469  0.00  0.00    -0.144 OA
ENDBRANCH  95  96
ENDBRANCH  93  95
ENDBRANCH  92  93
ENDBRANCH  91  92
ENDBRANCH  15  91
BRANCH  23 100
ATOM    100  C   UNL     1     -10.877   6.481  18.574  0.00  0.00    +0.034 C 
BRANCH 100 101
ATOM    101  C   UNL     1      -9.592   6.663  17.073  0.00  0.00    -0.015 C 
ATOM    102  C   UNL     1      -9.370   8.136  16.868  0.00  0.00    +0.007 C 
ATOM    103  C   UNL     1      -8.865   5.612  17.552  0.00  0.00    +0.007 C 
ENDBRANCH 100 101
ENDBRANCH  23 100
BRANCH  27 104
ATOM    104  C   UNL     1     -13.538   8.639  18.390  0.00  0.00    +0.047 C 
BRANCH 104 105
ATOM    105  C   UNL     1     -14.660   7.999  18.005  0.00  0.00    +0.085 C 
BRANCH 105 106
ATOM    106  N   UNL     1     -14.112   6.956  19.106  0.00  0.00    -0.296 NA
ATOM    107  H   UNL     1     -13.149   7.384  19.500  0.00  0.00    +0.124 HD
BRANCH 106 108
ATOM    108  C   UNL     1     -13.627   5.747  18.251  0.00  0.00    +0.284 C 
BRANCH 108 109
ATOM    109  S   UNL     1     -12.553   5.619  16.499  0.00  0.00    +0.123 S 
ATOM    110  O   UNL     1     -11.334   6.794  16.359  0.00  0.00    -0.046 OA
ATOM    111  O   UNL     1     -12.281   4.340  16.209  0.00  0.00    -0.144 OA
ATOM    112  O   UNL     1     -12.851   6.287  15.437  0.00  0.00    -0.144 OA
ENDBRANCH 108 109
ENDBRANCH 106 108
ENDBRANCH 105 106
ENDBRANCH 104 105
ENDBRANCH  27 104
BRANCH  19 113
ATOM    113  C   UNL     1     -10.433   8.590  14.126  0.00  0.00    +0.034 C 
BRANCH 113 114
ATOM    114  C   UNL     1     -10.815   8.243  12.791  0.00  0.00    -0.015 C 
ATOM    115  C   UNL     1     -12.419   7.859  12.608  0.00  0.00    +0.007 C 
ATOM    116  C   UNL     1     -10.542   9.247  11.806  0.00  0.00    +0.007 C 
ENDBRANCH 113 114
ENDBRANCH  19 113
BRANCH  11 117
ATOM    117  C   UNL     1      -8.429   4.058  11.618  0.00  0.00    +0.047 C 
BRANCH 117 118
ATOM    118  C   UNL     1      -6.941   3.957   9.973  0.00  0.00    +0.085 C 
BRANCH 118 119
ATOM    119  N   UNL     1      -7.000   5.116   9.996  0.00  0.00    -0.296 NA
ATOM    120  H   UNL     1      -7.936   5.953   9.248  0.00  0.00    +0.124 HD
BRANCH 119 121
ATOM    121  C   UNL     1      -6.543   5.122   7.859  0.00  0.00    +0.284 C 
BRANCH 121 122
ATOM    122  S   UNL     1      -7.509   4.302   6.367  0.00  0.00    +0.123 S 
ATOM    123  O   UNL     1      -8.879   4.848   6.229  0.00  0.00    -0.046 OA
ATOM    124  O   UNL     1      -6.430   4.583   5.482  0.00  0.00    -0.144 OA
ATOM    125  O   UNL     1      -7.811   2.553   6.710  0.00  0.00    -0.144 OA
ENDBRANCH 121 122
ENDBRANCH 119 121
ENDBRANCH 118 119
ENDBRANCH 117 118
ENDBRANCH  11 117
TORSDOF 46
