REMARK  Name = 
REMARK  5 active torsions:
REMARK  status: ('A' for Active; 'I' for Inactive)
REMARK    1  A    between atoms: C_1  and  C_2
REMARK    2  A    between atoms: C_9  and  C_11
REMARK    3  A    between atoms: C_14  and  N_15
REMARK    4  A    between atoms: C_16  and  C_18
REMARK    5  A    between atoms: C_23  and  C_24
REMARK                            x       y       z     vdW  Elec       q    Type
REMARK                         _______ _______ _______ _____ _____    ______ ____
ROOT
ATOM      1  C   UNL     1       1.250  -0.644   1.455  0.00  0.00    +0.037 A 
ATOM      2  C   UNL     1       0.458  -1.369   0.550  0.00  0.00    +0.015 A 
ATOM      3  C   UNL     1      -0.932  -1.404   0.696  0.00  0.00    +0.024 A 
ATOM      4  C   UNL     1      -1.553  -0.716   1.753  0.00  0.00    +0.034 A 
ATOM      5  C   UNL     1      -0.758  -0.033   2.683  0.00  0.00    +0.024 A 
ATOM      6  C   UNL     1       0.632   0.007   2.535  0.00  0.00    +0.015 A 
ENDROOT
BRANCH   1  15
ATOM      7  C   UNL     1       7.329   3.995  -0.643  0.00  0.00    +0.086 C 
ATOM      8  C   UNL     1       6.507   2.760  -0.802  0.00  0.00    +0.105 A 
ATOM      9  N   UNL     1       6.876   1.555  -0.309  0.00  0.00    -0.232 NA
ATOM     10  C   UNL     1       5.854   0.746  -0.654  0.00  0.00    +0.094 A 
ATOM     11  C   UNL     1       4.906   1.462  -1.340  0.00  0.00    +0.045 A 
ATOM     12  C   UNL     1       3.728   0.870  -2.048  0.00  0.00    +0.075 C 
ATOM     13  C   UNL     1       2.726   0.230  -1.077  0.00  0.00    +0.120 C 
ATOM     14  N   UNL     1       3.348  -0.559   0.007  0.00  0.00    -0.266 N 
ATOM     15  C   UNL     1       2.721  -0.601   1.304  0.00  0.00    +0.251 C 
ATOM     16  O   UNL     1       3.443  -0.600   2.338  0.00  0.00    -0.270 OA
ATOM     17  C   UNL     1       4.548  -1.336  -0.186  0.00  0.00    +0.046 A 
ATOM     18  C   UNL     1       4.508  -2.726   0.007  0.00  0.00    +0.024 A 
ATOM     19  C   UNL     1       5.684  -3.479  -0.022  0.00  0.00    +0.002 A 
ATOM     20  C   UNL     1       6.914  -2.849  -0.223  0.00  0.00    +0.001 A 
ATOM     21  C   UNL     1       6.970  -1.466  -0.408  0.00  0.00    +0.012 A 
ATOM     22  C   UNL     1       5.793  -0.703  -0.403  0.00  0.00    +0.023 A 
ATOM     23  N   UNL     1       5.315   2.736  -1.434  0.00  0.00    -0.345 N 
ATOM     24  H   UNL     1       4.838   3.525  -1.924  0.00  0.00    +0.167 HD
ENDBRANCH   1  15
BRANCH   4  25
ATOM     25  N   UNL     1      -2.978  -0.755   1.933  0.00  0.00    -0.281 N 
ATOM     26  C   UNL     1      -3.917  -0.764   0.846  0.00  0.00    +0.249 C 
ATOM     27  O   UNL     1      -3.542  -0.445  -0.315  0.00  0.00    -0.270 OA
ATOM     28  H   UNL     1      -3.355  -0.660   2.903  0.00  0.00    +0.155 HD
BRANCH  26  29
ATOM     29  C   UNL     1      -5.331  -1.139   1.086  0.00  0.00    +0.045 A 
ATOM     30  C   UNL     1      -5.605  -2.186   1.984  0.00  0.00    +0.013 A 
ATOM     31  C   UNL     1      -6.913  -2.630   2.183  0.00  0.00    +0.001 A 
ATOM     32  C   UNL     1      -7.966  -2.041   1.487  0.00  0.00    +0.001 A 
ATOM     33  C   UNL     1      -7.718  -0.994   0.600  0.00  0.00    +0.009 A 
ATOM     34  C   UNL     1      -6.409  -0.521   0.395  0.00  0.00    -0.006 A 
BRANCH  34  35
ATOM     35  C   UNL     1      -6.214   0.652  -0.491  0.00  0.00    -0.017 A 
ATOM     36  C   UNL     1      -6.693   0.630  -1.811  0.00  0.00    +0.008 A 
ATOM     37  C   UNL     1      -6.529   1.746  -2.639  0.00  0.00    +0.001 A 
ATOM     38  C   UNL     1      -5.894   2.892  -2.154  0.00  0.00    +0.000 A 
ATOM     39  C   UNL     1      -5.425   2.926  -0.840  0.00  0.00    +0.001 A 
ATOM     40  C   UNL     1      -5.588   1.814  -0.008  0.00  0.00    +0.008 A 
ENDBRANCH  34  35
ENDBRANCH  26  29
ENDBRANCH   4  25
TORSDOF 4
