REMARK  Name = 
REMARK  3 active torsions:
REMARK  status: ('A' for Active; 'I' for Inactive)
REMARK    1  A    between atoms: C_7  and  C_8
REMARK    2  A    between atoms: C_15  and  O_16
REMARK    3  A    between atoms: O_16  and  S_17
REMARK                            x       y       z     vdW  Elec       q    Type
REMARK                         _______ _______ _______ _____ _____    ______ ____
ROOT
ATOM      1 NA   UNL     1       0.000   0.000   0.000  0.00  0.00    +0.000 Na
ENDROOT
TORSDOF 0
REMARK  Name = 
REMARK  3 active torsions:
REMARK  status: ('A' for Active; 'I' for Inactive)
REMARK    1  A    between atoms: C_7  and  C_8
REMARK    2  A    between atoms: C_15  and  O_16
REMARK    3  A    between atoms: O_16  and  S_17
REMARK                            x       y       z     vdW  Elec       q    Type
REMARK                         _______ _______ _______ _____ _____    ______ ____
ROOT
ATOM      1  C   UNL     1      -2.252   0.444  -0.471  0.00  0.00    +0.000 C 
ATOM      2  C   UNL     1      -3.025   1.583  -1.138  0.00  0.00    +0.000 C 
ATOM      3  C   UNL     1      -4.471   1.351  -0.661  0.00  0.00    +0.000 C 
ATOM      4  C   UNL     1      -4.312   0.513   0.573  0.00  0.00    +0.000 C 
ATOM      5  O   UNL     1      -5.251   0.115   1.245  0.00  0.00    +0.000 OA
ATOM      6  C   UNL     1      -2.878   0.292   0.922  0.00  0.00    +0.000 C 
ATOM      7  C   UNL     1      -2.489   1.393   1.948  0.00  0.00    +0.000 C 
ATOM      8  C   UNL     1      -2.505  -1.106   1.451  0.00  0.00    +0.000 C 
ATOM      9  C   UNL     1      -0.963  -1.291   1.492  0.00  0.00    +0.000 C 
ATOM     10  C   UNL     1      -0.245  -0.915   0.154  0.00  0.00    +0.000 C 
ATOM     11  C   UNL     1       1.282  -0.966   0.223  0.00  0.00    +0.000 A 
ATOM     12  C   UNL     1       1.942  -1.897   1.050  0.00  0.00    +0.000 A 
ATOM     13  C   UNL     1       3.334  -1.999   1.046  0.00  0.00    +0.000 A 
ATOM     14  C   UNL     1       4.106  -1.200   0.204  0.00  0.00    +0.000 A 
ATOM     15  C   UNL     1       3.464  -0.292  -0.654  0.00  0.00    +0.000 A 
ATOM     16  C   UNL     1       2.063  -0.184  -0.671  0.00  0.00    +0.000 A 
ATOM     17  C   UNL     1       1.450   0.847  -1.596  0.00  0.00    +0.000 C 
ATOM     18  C   UNL     1      -0.066   0.705  -1.760  0.00  0.00    +0.000 C 
ATOM     19  C   UNL     1      -0.717   0.468  -0.393  0.00  0.00    +0.000 C 
ENDROOT
BRANCH  14  20
ATOM     20  O   UNL     1       5.500  -1.344   0.251  0.00  0.00    +0.000 OA
BRANCH  20  21
ATOM     21  S   UNL     1       6.605  -0.454  -0.705  0.00  0.00    +0.000 S 
ATOM     22  O   UNL     1       6.428   1.188  -0.400  0.00  0.00    +0.000 OA
ATOM     23  O   UNL     1       6.354  -0.728  -2.161  0.00  0.00    +0.000 OA
ATOM     24  O   UNL     1       8.005  -0.873  -0.357  0.00  0.00    +0.000 OA
ENDBRANCH  20  21
ENDBRANCH  14  20
TORSDOF 2
