REMARK  Name = 
REMARK  8 active torsions:
REMARK  status: ('A' for Active; 'I' for Inactive)
REMARK    1  A    between atoms: C_4  and  O_5
REMARK    2  A    between atoms: C_4  and  C_6
REMARK    3  A    between atoms: C_6  and  C_8
REMARK    4  A    between atoms: C_8  and  O_9
REMARK    5  A    between atoms: O_9  and  C_10
REMARK    6  A    between atoms: C_10  and  C_11
REMARK    7  A    between atoms: C_13  and  C_14
REMARK    8  A    between atoms: C_28  and  C_29
REMARK                            x       y       z     vdW  Elec       q    Type
REMARK                         _______ _______ _______ _____ _____    ______ ____
ROOT
ATOM      1  C   UNL     1       0.239  -1.023   0.671  0.00  0.00    +0.002 C 
ATOM      2  C   UNL     1       0.988  -1.673   1.829  0.00  0.00    +0.008 C 
ATOM      3  C   UNL     1       2.478  -1.449   1.512  0.00  0.00    +0.043 C 
ATOM      4  C   UNL     1       2.541  -0.572   0.222  0.00  0.00    +0.133 C 
ATOM      5  C   UNL     1       1.151   0.134   0.216  0.00  0.00    +0.013 C 
ATOM      6  C   UNL     1       1.141   1.344   1.211  0.00  0.00    +0.015 C 
ATOM      7  C   UNL     1       0.651   0.621  -1.163  0.00  0.00    +0.084 C 
ATOM      8  C   UNL     1      -0.815   0.989  -1.064  0.00  0.00    +0.138 C 
ATOM      9  O   UNL     1      -1.184   2.054  -1.535  0.00  0.00    -0.297 OA
ATOM     10  C   UNL     1      -1.804  -0.006  -0.437  0.00  0.00    +0.069 C 
ATOM     11  C   UNL     1      -1.228  -0.584   0.900  0.00  0.00    +0.004 C 
ATOM     12  C   UNL     1      -2.092  -1.766   1.365  0.00  0.00    +0.009 C 
ATOM     13  C   UNL     1      -3.527  -1.317   1.622  0.00  0.00    +0.032 C 
ATOM     14  C   UNL     1      -4.113  -0.627   0.409  0.00  0.00    -0.060 C 
ATOM     15  C   UNL     1      -5.403  -0.864   0.105  0.00  0.00    +0.046 C 
ATOM     16  C   UNL     1      -6.096  -0.153  -0.976  0.00  0.00    +0.156 C 
ATOM     17  O   UNL     1      -7.295  -0.435  -1.240  0.00  0.00    -0.293 OA
ATOM     18  C   UNL     1      -5.411   0.945  -1.722  0.00  0.00    +0.080 C 
ATOM     19  C   UNL     1      -3.895   0.734  -1.721  0.00  0.00    +0.019 C 
ATOM     20  C   UNL     1      -3.303   0.477  -0.294  0.00  0.00    -0.001 C 
ATOM     21  C   UNL     1      -3.411   1.766   0.562  0.00  0.00    +0.016 C 
ENDROOT
BRANCH   4  22
ATOM     22  O   UNL     1       2.634  -1.429  -0.897  0.00  0.00    -0.380 OA
ATOM     23  H   UNL     1       3.498  -1.914  -0.839  0.00  0.00    +0.211 HD
ENDBRANCH   4  22
BRANCH   4  24
ATOM     24  C   UNL     1       3.717   0.410   0.202  0.00  0.00    +0.202 C 
ATOM     25  O   UNL     1       4.252   0.754   1.246  0.00  0.00    -0.291 OA
BRANCH  24  26
ATOM     26  C   UNL     1       4.162   1.060  -1.084  0.00  0.00    +0.309 C 
BRANCH  26  27
ATOM     27  O   UNL     1       5.580   1.200  -1.127  0.00  0.00    -0.457 OA
BRANCH  27  28
ATOM     28  C   UNL     1       6.463   0.119  -1.227  0.00  0.00    +0.304 C 
ATOM     29  C   UNL     1       7.933   0.370  -1.254  0.00  0.00    +0.136 C 
ATOM     30  O   UNL     1       6.036  -1.065  -1.246  0.00  0.00    -0.251 OA
ENDBRANCH  27  28
ENDBRANCH  26  27
ENDBRANCH  24  26
ENDBRANCH   4  24
TORSDOF 5
