REMARK  Name = 
REMARK  4 active torsions:
REMARK  status: ('A' for Active; 'I' for Inactive)
REMARK    1  A    between atoms: C_1  and  N_2
REMARK    2  A    between atoms: N_2  and  C_3
REMARK    3  A    between atoms: C_3  and  C_4
REMARK    4  A    between atoms: C_4  and  O_5
REMARK                            x       y       z     vdW  Elec       q    Type
REMARK                         _______ _______ _______ _____ _____    ______ ____
ROOT
ATOM      1  C   UNL     1      -0.100  -2.102   0.173  0.00  0.00    +0.146 C 
ATOM      2  N   UNL     1      -0.287  -0.646   0.173  0.00  0.00    -0.335 N 
ATOM      3  C   UNL     1      -1.070  -0.034  -0.881  0.00  0.00    +0.191 C 
ATOM      4  N   UNL     1      -1.152   1.392  -1.015  0.00  0.00    -0.370 N 
ATOM      5  N   UNL     1      -1.708  -0.785  -1.724  0.00  0.00    -0.269 NA
ATOM      6  H   UNL     1      -0.618   2.043  -0.401  0.00  0.00    +0.159 HD
ATOM      7  H   UNL     1      -1.741   1.818  -1.766  0.00  0.00    +0.159 HD
ATOM      8  H   UNL     1      -2.281  -0.382  -2.499  0.00  0.00    +0.190 HD
ENDROOT
BRANCH   2   9
ATOM      9  C   UNL     1       0.330   0.157   1.238  0.00  0.00    +0.239 C 
BRANCH   9  10
ATOM     10  C   UNL     1       1.608   0.772   0.760  0.00  0.00    +0.324 C 
ATOM     11  O   UNL     1       2.515   0.045   0.273  0.00  0.00    -0.249 OA
BRANCH  10  12
ATOM     12  O   UNL     1       1.806   2.143   0.880  0.00  0.00    -0.479 OA
ATOM     13  H   UNL     1       2.669   2.573   0.569  0.00  0.00    +0.295 HD
ENDBRANCH  10  12
ENDBRANCH   9  10
ENDBRANCH   2   9
TORSDOF 3
