REMARK  Name = 
REMARK  11 active torsions:
REMARK  status: ('A' for Active; 'I' for Inactive)
REMARK    1  A    between atoms: O_1  and  C_2
REMARK    2  A    between atoms: C_2  and  C_3
REMARK    3  A    between atoms: C_2  and  C_19
REMARK    4  A    between atoms: C_3  and  O_4
REMARK    5  A    between atoms: O_4  and  C_5
REMARK    6  A    between atoms: C_14  and  C_16
REMARK    7  A    between atoms: C_16  and  O_17
REMARK    8  A    between atoms: C_19  and  O_20
REMARK    9  A    between atoms: O_20  and  C_21
REMARK   10  A    between atoms: C_30  and  C_32
REMARK   11  A    between atoms: C_32  and  O_33
REMARK                            x       y       z     vdW  Elec       q    Type
REMARK                         _______ _______ _______ _____ _____    ______ ____
ROOT
ATOM      1  C   UNL     1       0.028   1.794  -0.662  0.00  0.00    +0.189 C 
ENDROOT
BRANCH   1   2
ATOM      2  O   UNL     1      -0.142   1.208  -1.928  0.00  0.00    -0.385 OA
ATOM      3  H   UNL     1       0.760   0.943  -2.247  0.00  0.00    +0.210 HD
ENDBRANCH   1   2
BRANCH   1   4
ATOM      4  C   UNL     1       0.241   0.701   0.399  0.00  0.00    +0.263 C 
BRANCH   4   5
ATOM      5  O   UNL     1       1.459  -0.007   0.161  0.00  0.00    -0.488 OA
BRANCH   5   6
ATOM      6  C   UNL     1       2.758   0.472   0.413  0.00  0.00    +0.135 A 
ATOM      7  C   UNL     1       2.977   1.693   1.084  0.00  0.00    +0.046 A 
ATOM      8  C   UNL     1       4.272   2.150   1.328  0.00  0.00    +0.007 A 
ATOM      9  C   UNL     1       5.371   1.403   0.912  0.00  0.00    +0.047 A 
ATOM     10  C   UNL     1       5.186   0.189   0.248  0.00  0.00    +0.143 A 
ATOM     11  C   UNL     1       3.877  -0.291  -0.009  0.00  0.00    +0.105 A 
ATOM     12  C   UNL     1       3.758  -1.524  -0.686  0.00  0.00    +0.197 A 
ATOM     13  O   UNL     1       2.632  -2.021  -0.958  0.00  0.00    -0.287 OA
ATOM     14  C   UNL     1       4.909  -2.214  -1.070  0.00  0.00    +0.105 A 
ATOM     15  C   UNL     1       6.167  -1.669  -0.775  0.00  0.00    +0.215 A 
ATOM     16  O   UNL     1       6.251  -0.506  -0.138  0.00  0.00    -0.448 OA
BRANCH  15  17
ATOM     17  C   UNL     1       7.408  -2.361  -1.160  0.00  0.00    +0.373 C 
ATOM     18  O   UNL     1       7.370  -3.466  -1.766  0.00  0.00    -0.242 OA
BRANCH  17  19
ATOM     19  O   UNL     1       8.637  -1.787  -0.850  0.00  0.00    -0.475 OA
ATOM     20  H   UNL     1       9.504  -2.246  -1.105  0.00  0.00    +0.296 HD
ENDBRANCH  17  19
ENDBRANCH  15  17
ENDBRANCH   5   6
ENDBRANCH   4   5
ENDBRANCH   1   4
BRANCH   1  21
ATOM     21  C   UNL     1      -1.187   2.679  -0.348  0.00  0.00    +0.263 C 
BRANCH  21  22
ATOM     22  O   UNL     1      -2.417   1.966  -0.510  0.00  0.00    -0.488 OA
BRANCH  22  23
ATOM     23  C   UNL     1      -3.078   1.185   0.458  0.00  0.00    +0.135 A 
ATOM     24  C   UNL     1      -2.744   1.257   1.827  0.00  0.00    +0.046 A 
ATOM     25  C   UNL     1      -3.414   0.474   2.767  0.00  0.00    +0.007 A 
ATOM     26  C   UNL     1      -4.430  -0.390   2.367  0.00  0.00    +0.047 A 
ATOM     27  C   UNL     1      -4.789  -0.476   1.020  0.00  0.00    +0.143 A 
ATOM     28  C   UNL     1      -4.119   0.311   0.051  0.00  0.00    +0.105 A 
ATOM     29  C   UNL     1      -4.527   0.172  -1.294  0.00  0.00    +0.197 A 
ATOM     30  O   UNL     1      -3.982   0.831  -2.220  0.00  0.00    -0.287 OA
ATOM     31  C   UNL     1      -5.557  -0.714  -1.614  0.00  0.00    +0.105 A 
ATOM     32  C   UNL     1      -6.168  -1.454  -0.594  0.00  0.00    +0.215 A 
ATOM     33  O   UNL     1      -5.764  -1.307   0.664  0.00  0.00    -0.448 OA
BRANCH  32  34
ATOM     34  C   UNL     1      -7.258  -2.400  -0.883  0.00  0.00    +0.373 C 
ATOM     35  O   UNL     1      -7.670  -2.569  -2.063  0.00  0.00    -0.242 OA
BRANCH  34  36
ATOM     36  O   UNL     1      -7.840  -3.117   0.158  0.00  0.00    -0.475 OA
ATOM     37  H   UNL     1      -8.591  -3.773  -0.019  0.00  0.00    +0.296 HD
ENDBRANCH  34  36
ENDBRANCH  32  34
ENDBRANCH  22  23
ENDBRANCH  21  22
ENDBRANCH   1  21
TORSDOF 11
