REMARK  Name = 
REMARK  6 active torsions:
REMARK  status: ('A' for Active; 'I' for Inactive)
REMARK    1  A    between atoms: C_1  and  C_2
REMARK    2  A    between atoms: C_2  and  N_3
REMARK    3  A    between atoms: N_3  and  C_9
REMARK    4  A    between atoms: C_4  and  C_6
REMARK    5  A    between atoms: C_7  and  C_8
REMARK    6  A    between atoms: C_14  and  C_15
REMARK                            x       y       z     vdW  Elec       q    Type
REMARK                         _______ _______ _______ _____ _____    ______ ____
ROOT
ATOM      1  N   UNL     1       0.016   0.102   0.747  0.00  0.00    -0.268 N 
ATOM      2  C   UNL     1       1.211  -0.463   0.163  0.00  0.00    +0.243 C 
ATOM      3  O   UNL     1       1.267  -1.707  -0.042  0.00  0.00    -0.270 OA
ENDROOT
BRANCH   1   4
ATOM      4  C   UNL     1      -1.215  -0.645   0.690  0.00  0.00    +0.039 A 
ATOM      5  C   UNL     1      -1.772  -1.144   1.878  0.00  0.00    +0.024 A 
ATOM      6  C   UNL     1      -2.953  -1.888   1.849  0.00  0.00    +0.002 A 
ATOM      7  C   UNL     1      -3.587  -2.147   0.633  0.00  0.00    +0.000 A 
ATOM      8  C   UNL     1      -3.044  -1.657  -0.557  0.00  0.00    +0.005 A 
ATOM      9  C   UNL     1      -1.866  -0.892  -0.543  0.00  0.00    -0.029 A 
ATOM     10  C   UNL     1      -1.300  -0.392  -1.845  0.00  0.00    +0.045 C 
ENDBRANCH   1   4
BRANCH   2  11
ATOM     11  C   UNL     1       2.363   0.387  -0.219  0.00  0.00    +0.063 C 
ATOM     12  C   UNL     1       3.503  -0.129  -0.690  0.00  0.00    -0.025 C 
ATOM     13  C   UNL     1       4.643   0.757  -1.077  0.00  0.00    +0.035 C 
ENDBRANCH   2  11
BRANCH   1  15
ATOM     14  C   UNL     1      -0.467   2.508   0.529  0.00  0.00    +0.025 C 
ATOM     15  C   UNL     1       0.028   1.395   1.447  0.00  0.00    +0.110 C 
ENDBRANCH   1  15
TORSDOF 3
