REMARK  Name = 
REMARK  42 active torsions:
REMARK  status: ('A' for Active; 'I' for Inactive)
REMARK    1  A    between atoms: O_1  and  C_2
REMARK    2  A    between atoms: C_2  and  C_3
REMARK    3  A    between atoms: C_5  and  N_85
REMARK    4  A    between atoms: C_6  and  O_7
REMARK    5  A    between atoms: C_8  and  O_9
REMARK    6  A    between atoms: O_9  and  P_10
REMARK    7  A    between atoms: P_10  and  O_11
REMARK    8  A    between atoms: P_10  and  O_13
REMARK    9  A    between atoms: O_13  and  C_14
REMARK   10  A    between atoms: C_14  and  C_16
REMARK   11  A    between atoms: C_14  and  C_17
REMARK   12  A    between atoms: C_17  and  N_18
REMARK   13  A    between atoms: C_19  and  C_21
REMARK   14  A    between atoms: C_21  and  C_22
REMARK   15  A    between atoms: C_22  and  C_23
REMARK   16  A    between atoms: C_23  and  C_24
REMARK   17  A    between atoms: C_25  and  C_26
REMARK   18  A    between atoms: C_26  and  C_27
REMARK   19  A    between atoms: N_32  and  CO_33
REMARK   20  A    between atoms: CO_33  and  C_34
REMARK   21  A    between atoms: C_37  and  C_38
REMARK   22  A    between atoms: C_46  and  C_47
REMARK   23  A    between atoms: C_50  and  C_51
REMARK   24  A    between atoms: C_52  and  C_53
REMARK   25  A    between atoms: C_52  and  C_54
REMARK   26  A    between atoms: C_54  and  C_55
REMARK   27  A    between atoms: C_58  and  C_59
REMARK   28  A    between atoms: C_59  and  C_60
REMARK   29  A    between atoms: C_60  and  C_61
REMARK   30  A    between atoms: C_64  and  C_65
REMARK   31  A    between atoms: C_64  and  C_66
REMARK   32  A    between atoms: C_66  and  C_67
REMARK   33  A    between atoms: C_70  and  C_71
REMARK   34  A    between atoms: C_71  and  C_72
REMARK   35  A    between atoms: C_72  and  C_73
REMARK   36  A    between atoms: C_76  and  C_77
REMARK   37  A    between atoms: C_76  and  C_78
REMARK   38  A    between atoms: C_79  and  C_80
REMARK   39  A    between atoms: C_80  and  C_81
REMARK   40  A    between atoms: C_81  and  C_82
REMARK   41  A    between atoms: C_90  and  C_91
REMARK   42  A    between atoms: C_92  and  C_93
REMARK                            x       y       z     vdW  Elec       q    Type
REMARK                         _______ _______ _______ _____ _____    ______ ____
ROOT
ATOM      1  C   UNL     1      -0.642   3.274  -0.766  0.00  0.00    +0.000 C 
ATOM      2  C   UNL     1      -0.219   3.983   0.511  0.00  0.00    +0.000 C 
ATOM      3  C   UNL     1      -0.520   1.959  -1.574  0.00  0.00    +0.000 C 
ATOM      4  C   UNL     1      -1.974   1.724  -2.063  0.00  0.00    +0.000 C 
ATOM      5  N   UNL     1      -2.495   3.138  -2.394  0.00  0.00    +0.000 N 
ATOM      6  C   UNL     1      -1.649   4.123  -1.569  0.00  0.00    +0.000 C 
ATOM      7  C   UNL     1      -1.719   2.643 -14.828  0.00  0.00    +0.000 C 
ATOM      8  C   UNL     1      -1.207   2.835 -16.246  0.00  0.00    +0.000 C 
ATOM      9  C   UNL     1      -2.661   2.124 -13.753  0.00  0.00    +0.000 C 
ATOM     10  N   UNL     1      -2.310   1.876 -12.521  0.00  0.00    +0.000 NA
ATOM     11  C   UNL     1      -3.483   1.373 -11.712  0.00  0.00    +0.000 C 
ATOM     12  C   UNL     1      -3.584   1.387 -10.355  0.00  0.00    +0.000 C 
ATOM     13  C   UNL     1      -2.406   1.846  -9.510  0.00  0.00    +0.000 C 
ATOM     14  N   UNL     1      -2.409   1.894  -8.206  0.00  0.00    +0.000 NA
ATOM     15  C   UNL     1      -1.084   2.394  -7.678  0.00  0.00    +0.000 C 
ATOM     16  C   UNL     1      -0.587   2.313  -6.414  0.00  0.00    +0.000 C 
ATOM     17  C   UNL     1       0.777   2.901  -6.094  0.00  0.00    +0.000 C 
ATOM     18  C   UNL     1      -1.397   1.634  -5.321  0.00  0.00    +0.000 C 
ATOM     19  N   UNL     1      -1.005   1.508  -4.083  0.00  0.00    +0.000 NA
ATOM     20  C   UNL     1      -2.042   0.784  -3.255  0.00  0.00    +0.000 C 
ATOM     21  C   UNL     1      -2.290  -0.470  -2.434  0.00  0.00    +0.000 C 
ATOM     22  C   UNL     1      -2.972   0.111  -4.292  0.00  0.00    +0.000 C 
ATOM     23  C   UNL     1      -2.970  -1.075  -3.340  0.00  0.00    +0.000 C 
ATOM     24  C   UNL     1      -2.760   1.017  -5.527  0.00  0.00    +0.000 C 
ATOM     25  C   UNL     1      -0.395   3.047  -8.899  0.00  0.00    +0.000 C 
ATOM     26  C   UNL     1       0.275   4.179  -9.661  0.00  0.00    +0.000 C 
ATOM     27  C   UNL     1      -1.081   2.304 -10.070  0.00  0.00    +0.000 C 
ATOM     28  C   UNL     1      -4.535   0.952 -12.765  0.00  0.00    +0.000 C 
ATOM     29  C   UNL     1      -5.675   0.216 -13.450  0.00  0.00    +0.000 C 
ATOM     30  C   UNL     1      -4.968   0.164 -11.539  0.00  0.00    +0.000 C 
ATOM     31  C   UNL     1      -4.126   1.827 -13.973  0.00  0.00    +0.000 C 
ENDROOT
BRANCH   1  32
ATOM     32  C   UNL     1       0.491   2.630   0.017  0.00  0.00    +0.000 C 
BRANCH  32  33
ATOM     33  C   UNL     1       1.332   3.753   0.601  0.00  0.00    +0.000 C 
BRANCH  33  35
ATOM     34  N   UNL     1      -0.731   5.223   1.139  0.00  0.00    +0.000 N 
ATOM     35  C   UNL     1       0.496   4.551   1.589  0.00  0.00    +0.000 C 
ATOM     36  O   UNL     1       0.858   4.636   2.805  0.00  0.00    +0.000 OA
ATOM     37  H   UNL     1      -1.293   5.758   1.802  0.00  0.00    +0.000 HD
BRANCH  34  38
ATOM     38  C   UNL     1      -1.150   5.125  -0.267  0.00  0.00    +0.000 C 
BRANCH  38  39
ATOM     39  C   UNL     1      -2.524   4.478  -0.342  0.00  0.00    +0.000 C 
ATOM     40  C   UNL     1      -3.525   5.324   0.427  0.00  0.00    +0.000 C 
BRANCH  39  41
ATOM     41  O   UNL     1      -2.928   4.383  -1.700  0.00  0.00    +0.000 OA
BRANCH  41  42
ATOM     42  P   UNL     1      -3.021   2.717  -2.158  0.00  0.00    +0.000 P 
ATOM     43  O   UNL     1      -3.451   3.134  -3.586  0.00  0.00    +0.000 OA
BRANCH  42  44
ATOM     44  O   UNL     1      -1.344   2.520  -1.782  0.00  0.00    +0.000 OA
ATOM     45  H   UNL     1      -1.247   2.251  -0.824  0.00  0.00    +0.000 HD
ENDBRANCH  42  44
BRANCH  42  46
ATOM     46  O   UNL     1      -3.115   1.051  -2.616  0.00  0.00    +0.000 OA
BRANCH  46  51
ATOM     47  C   UNL     1      -3.999   0.505  -0.398  0.00  0.00    +0.000 C 
ATOM     48  O   UNL     1      -3.381   0.068   0.856  0.00  0.00    +0.000 OA
ATOM     49  C   UNL     1      -1.994  -0.099   0.656  0.00  0.00    +0.000 C 
ATOM     50  C   UNL     1      -1.652   0.468  -0.725  0.00  0.00    +0.000 C 
ATOM     51  C   UNL     1      -2.964   0.235  -1.464  0.00  0.00    +0.000 C 
BRANCH  49  52
ATOM     52  N   UNL     1      -1.247   0.626   1.695  0.00  0.00    +0.000 N 
ATOM     53  C   UNL     1      -1.308   0.438   3.006  0.00  0.00    +0.000 A 
ATOM     54  N   UNL     1      -0.604   1.359   3.635  0.00  0.00    +0.000 NA
ATOM     55  C   UNL     1      -0.070   2.178   2.718  0.00  0.00    +0.000 A 
ATOM     56  C   UNL     1       0.753   3.314   2.770  0.00  0.00    +0.000 A 
ATOM     57  C   UNL     1       1.120   3.928   1.566  0.00  0.00    +0.000 A 
ATOM     58  C   UNL     1       2.010   5.160   1.585  0.00  0.00    +0.000 C 
ATOM     59  C   UNL     1       0.682   3.425   0.377  0.00  0.00    +0.000 A 
ATOM     60  C   UNL     1       1.097   4.111  -0.914  0.00  0.00    +0.000 C 
ATOM     61  C   UNL     1      -0.106   2.341   0.317  0.00  0.00    +0.000 A 
ATOM     62  C   UNL     1      -0.498   1.696   1.450  0.00  0.00    +0.000 A 
ENDBRANCH  49  52
BRANCH  50  63
ATOM     63  O   UNL     1      -1.460   1.865  -0.601  0.00  0.00    +0.000 OA
ATOM     64  H   UNL     1      -2.265   2.274  -0.170  0.00  0.00    +0.000 HD
ENDBRANCH  50  63
BRANCH  47  65
ATOM     65  C   UNL     1      -5.362  -0.011  -0.831  0.00  0.00    +0.000 C 
BRANCH  65  66
ATOM     66  O   UNL     1      -5.412  -0.029  -2.250  0.00  0.00    +0.000 OA
ATOM     67  H   UNL     1      -5.213   0.886  -2.602  0.00  0.00    +0.000 HD
ENDBRANCH  65  66
ENDBRANCH  47  65
ENDBRANCH  46  51
ENDBRANCH  42  46
ENDBRANCH  41  42
ENDBRANCH  39  41
ENDBRANCH  38  39
ENDBRANCH  34  38
ENDBRANCH  33  35
ENDBRANCH  32  33
ENDBRANCH   1  32
BRANCH   3  68
ATOM     68  C   UNL     1      -0.405   0.639  -2.319  0.00  0.00    +0.000 C 
BRANCH  68  69
ATOM     69  C   UNL     1      -1.810   0.195  -2.691  0.00  0.00    +0.000 C 
ATOM     70  O   UNL     1      -2.122   0.028  -3.912  0.00  0.00    +0.000 OA
ATOM     71  N   UNL     1      -2.809  -0.042  -1.638  0.00  0.00    +0.000 N 
ATOM     72  H   UNL     1      -2.559   0.092  -0.659  0.00  0.00    +0.000 HD
ATOM     73  H   UNL     1      -3.752  -0.340  -1.888  0.00  0.00    +0.000 HD
ENDBRANCH  68  69
ENDBRANCH   3  68
BRANCH   5  74
ATOM     74 CO   UNL     1      -3.959   3.593  -3.631  0.00  0.00    +0.000 Co
BRANCH  74  75
ATOM     75  C   UNL     1      -5.461   4.059  -4.900  0.00  0.00    +0.000 C 
ATOM     76  N   UNL     1      -6.398   4.351  -5.692  0.00  0.00    +0.000 NA
ENDBRANCH  74  75
ENDBRANCH   5  74
BRANCH  22  77
ATOM     77  C   UNL     1      -4.096  -0.881  -4.546  0.00  0.00    +0.000 C 
BRANCH  77  78
ATOM     78  C   UNL     1      -4.177  -1.975  -3.493  0.00  0.00    +0.000 C 
ATOM     79  O   UNL     1      -5.160  -2.011  -2.688  0.00  0.00    +0.000 OA
ATOM     80  N   UNL     1      -3.118  -2.991  -3.406  0.00  0.00    +0.000 N 
ATOM     81  H   UNL     1      -2.329  -2.962  -4.052  0.00  0.00    +0.000 HD
ATOM     82  H   UNL     1      -3.173  -3.725  -2.699  0.00  0.00    +0.000 HD
ENDBRANCH  77  78
ENDBRANCH  22  77
BRANCH  24  83
ATOM     83  C   UNL     1      -3.736   1.161  -6.683  0.00  0.00    +0.000 C 
BRANCH  83  84
ATOM     84  C   UNL     1      -4.278  -0.208  -7.064  0.00  0.00    +0.000 C 
BRANCH  84  85
ATOM     85  C   UNL     1      -5.000  -0.817  -5.873  0.00  0.00    +0.000 C 
ATOM     86  O   UNL     1      -6.232  -1.116  -5.962  0.00  0.00    +0.000 OA
ATOM     87  N   UNL     1      -4.273  -1.059  -4.619  0.00  0.00    +0.000 N 
ATOM     88  H   UNL     1      -3.284  -0.819  -4.548  0.00  0.00    +0.000 HD
ATOM     89  H   UNL     1      -4.757  -1.468  -3.820  0.00  0.00    +0.000 HD
ENDBRANCH  84  85
ENDBRANCH  83  84
ENDBRANCH  24  83
BRANCH  25  90
ATOM     90  C   UNL     1       0.626   3.406  -7.832  0.00  0.00    +0.000 C 
BRANCH  90  91
ATOM     91  C   UNL     1       0.689   4.918  -7.692  0.00  0.00    +0.000 C 
ATOM     92  O   UNL     1       0.387   5.467  -6.586  0.00  0.00    +0.000 OA
ATOM     93  N   UNL     1       1.098   5.746  -8.836  0.00  0.00    +0.000 N 
ATOM     94  H   UNL     1       1.340   5.305  -9.724  0.00  0.00    +0.000 HD
ATOM     95  H   UNL     1       1.140   6.760  -8.742  0.00  0.00    +0.000 HD
ENDBRANCH  90  91
ENDBRANCH  25  90
BRANCH  27  96
ATOM     96  C   UNL     1      -0.874   2.360 -11.575  0.00  0.00    +0.000 C 
BRANCH  96  97
ATOM     97  C   UNL     1      -0.362   3.736 -11.967  0.00  0.00    +0.000 C 
BRANCH  97  98
ATOM     98  C   UNL     1       0.962   4.002 -11.270  0.00  0.00    +0.000 C 
ATOM     99  O   UNL     1       2.009   4.223 -11.956  0.00  0.00    +0.000 OA
ATOM    100  N   UNL     1       1.033   4.002  -9.801  0.00  0.00    +0.000 N 
ATOM    101  H   UNL     1       0.193   3.824  -9.251  0.00  0.00    +0.000 HD
ATOM    102  H   UNL     1       1.921   4.180  -9.333  0.00  0.00    +0.000 HD
ENDBRANCH  97  98
ENDBRANCH  96  97
ENDBRANCH  27  96
BRANCH  31 103
ATOM    103  C   UNL     1      -4.854   2.139 -15.270  0.00  0.00    +0.000 C 
BRANCH 103 104
ATOM    104  C   UNL     1      -5.458   0.869 -15.845  0.00  0.00    +0.000 C 
BRANCH 104 105
ATOM    105  C   UNL     1      -6.478   0.305 -14.869  0.00  0.00    +0.000 C 
ATOM    106  O   UNL     1      -7.690   0.169 -15.224  0.00  0.00    +0.000 OA
ATOM    107  N   UNL     1      -6.061  -0.082 -13.513  0.00  0.00    +0.000 N 
ATOM    108  H   UNL     1      -5.087   0.027 -13.228  0.00  0.00    +0.000 HD
ATOM    109  H   UNL     1      -6.745  -0.461 -12.858  0.00  0.00    +0.000 HD
ENDBRANCH 104 105
ENDBRANCH 103 104
ENDBRANCH  31 103
TORSDOF 31
