REMARK  Name = 
REMARK  7 active torsions:
REMARK  status: ('A' for Active; 'I' for Inactive)
REMARK    1  A    between atoms: C_3  and  C_4
REMARK    2  A    between atoms: C_3  and  C_5
REMARK    3  A    between atoms: CA_6  and  C_21
REMARK    4  A    between atoms: CA_10  and  N_11
REMARK    5  A    between atoms: C_12  and  C_14
REMARK    6  A    between atoms: C_14  and  N_15
REMARK    7  A    between atoms: C_21  and  O_22
REMARK                            x       y       z     vdW  Elec       q    Type
REMARK                         _______ _______ _______ _____ _____    ______ ____
ROOT
ATOM      1  C   UNL     1      -1.962  -0.628  -1.545  0.00  0.00    +0.165 C 
ATOM      2  S   UNL     1      -1.747  -1.178   0.190  0.00  0.00    -0.127 S 
ATOM      3  C   UNL     1      -3.011   0.011   0.849  0.00  0.00    +0.042 C 
ATOM      4  C   UNL     1      -3.874  -0.708   1.904  0.00  0.00    +0.025 C 
ATOM      5  C   UNL     1      -2.250   1.159   1.538  0.00  0.00    +0.025 C 
ATOM      6  CA  UNL     1      -3.828   0.578  -0.356  0.00  0.00    +0.201 C 
ATOM      7  N   UNL     1      -2.946   0.409  -1.482  0.00  0.00    -0.271 N 
ATOM      8  C   UNL     1      -1.993   1.314  -2.165  0.00  0.00    +0.240 C 
ATOM      9  O   UNL     1      -2.018   2.515  -2.542  0.00  0.00    -0.273 OA
ATOM     10  CA  UNL     1      -0.962   0.229  -2.145  0.00  0.00    +0.190 C 
ENDROOT
BRANCH  10  11
ATOM     11  N   UNL     1       0.164   0.560  -1.267  0.00  0.00    -0.300 N 
ATOM     12  C   UNL     1       1.248  -0.359  -1.053  0.00  0.00    +0.234 C 
ATOM     13  O   UNL     1       1.274  -1.443  -1.699  0.00  0.00    -0.274 OA
ATOM     14  H   UNL     1       0.206   1.509  -0.833  0.00  0.00    +0.150 HD
BRANCH  12  15
ATOM     15  C   UNL     1       2.348  -0.036  -0.045  0.00  0.00    +0.094 C 
ATOM     16  C   UNL     1       3.349  -1.220   0.072  0.00  0.00    +0.031 C 
ATOM     17  C   UNL     1       4.531  -0.887   0.993  0.00  0.00    +0.002 C 
ATOM     18  C   UNL     1       5.266   0.366   0.508  0.00  0.00    +0.000 C 
ATOM     19  C   UNL     1       4.307   1.555   0.396  0.00  0.00    +0.002 C 
ATOM     20  C   UNL     1       3.119   1.225  -0.519  0.00  0.00    +0.031 C 
BRANCH  15  21
ATOM     21  N   UNL     1       1.750   0.209   1.276  0.00  0.00    -0.317 NA
ATOM     22  H   UNL     1       1.148  -0.604   1.543  0.00  0.00    +0.119 HD
ATOM     23  H   UNL     1       1.133   1.053   1.246  0.00  0.00    +0.119 HD
ENDBRANCH  15  21
ENDBRANCH  12  15
ENDBRANCH  10  11
BRANCH   6  24
ATOM     24  C   UNL     1      -5.113  -0.156  -0.634  0.00  0.00    +0.327 C 
ATOM     25  OXT UNL     1      -6.216   0.374  -0.335  0.00  0.00    -0.249 OA
BRANCH  24  26
ATOM     26  O   UNL     1      -5.086  -1.434  -1.187  0.00  0.00    -0.479 OA
ATOM     27  H   UNL     1      -5.945  -1.942  -1.364  0.00  0.00    +0.295 HD
ENDBRANCH  24  26
ENDBRANCH   6  24
TORSDOF 5
