REMARK  Name = 
REMARK  40 active torsions:
REMARK  status: ('A' for Active; 'I' for Inactive)
REMARK    1  A    between atoms: C_1  and  C_2
REMARK    2  A    between atoms: C_2  and  C_3
REMARK    3  A    between atoms: C_7  and  C_8
REMARK    4  A    between atoms: C_8  and  O_9
REMARK    5  A    between atoms: C_8  and  C_10
REMARK    6  A    between atoms: C_10  and  C_11
REMARK    7  A    between atoms: C_10  and  C_12
REMARK    8  A    between atoms: C_12  and  C_13
REMARK    9  A    between atoms: C_14  and  C_15
REMARK   10  A    between atoms: N_16  and  C_17
REMARK   11  A    between atoms: C_20  and  C_21
REMARK   12  A    between atoms: C_21  and  C_22
REMARK   13  A    between atoms: C_21  and  C_23
REMARK   14  A    between atoms: N_24  and  C_25
REMARK   15  A    between atoms: C_28  and  C_29
REMARK   16  A    between atoms: C_29  and  C_30
REMARK   17  A    between atoms: C_30  and  C_31
REMARK   18  A    between atoms: C_30  and  C_32
REMARK   19  A    between atoms: N_33  and  C_34
REMARK   20  A    between atoms: C_37  and  C_38
REMARK   21  A    between atoms: C_38  and  C_39
REMARK   22  A    between atoms: C_39  and  C_40
REMARK   23  A    between atoms: C_39  and  C_41
REMARK   24  A    between atoms: N_42  and  C_43
REMARK   25  A    between atoms: C_46  and  C_47
REMARK   26  A    between atoms: C_51  and  C_52
REMARK   27  A    between atoms: C_56  and  C_57
REMARK   28  A    between atoms: C_57  and  C_58
REMARK   29  A    between atoms: C_58  and  C_59
REMARK   30  A    between atoms: C_58  and  C_60
REMARK   31  A    between atoms: N_61  and  C_62
REMARK   32  A    between atoms: C_65  and  C_83
REMARK   33  A    between atoms: C_69  and  C_70
REMARK   34  A    between atoms: C_70  and  C_71
REMARK   35  A    between atoms: C_71  and  C_72
REMARK   36  A    between atoms: C_71  and  C_73
REMARK   37  A    between atoms: N_74  and  C_75
REMARK   38  A    between atoms: N_79  and  C_80
REMARK   39  A    between atoms: C_83  and  C_84
REMARK   40  A    between atoms: C_83  and  C_85
REMARK                            x       y       z     vdW  Elec       q    Type
REMARK                         _______ _______ _______ _____ _____    ______ ____
ROOT
ATOM      1  C   UNL     1      -0.522  -3.877  -3.004  0.00  0.00    +0.159 C 
ATOM      2  N   UNL     1      -1.567  -4.001  -1.984  0.00  0.00    -0.302 N 
ATOM      3  C   UNL     1      -1.690  -3.052  -0.911  0.00  0.00    +0.237 C 
ATOM      4  O   UNL     1      -0.757  -2.236  -0.674  0.00  0.00    -0.274 OA
ATOM      5  C   UNL     1      -2.955  -2.992  -0.097  0.00  0.00    +0.190 C 
ATOM      6  N   UNL     1      -3.716  -1.780  -0.491  0.00  0.00    -0.289 N 
ATOM      7  C   UNL     1      -3.228  -0.440  -0.132  0.00  0.00    +0.133 C 
ATOM      8  C   UNL     1      -4.854  -1.912  -1.380  0.00  0.00    +0.237 C 
ATOM      9  O   UNL     1      -5.463  -3.012  -1.438  0.00  0.00    -0.274 OA
ATOM     10  C   UNL     1      -5.365  -0.730  -2.199  0.00  0.00    +0.164 C 
ATOM     11  N   UNL     1      -6.147   0.211  -1.357  0.00  0.00    -0.291 N 
ATOM     12  C   UNL     1      -7.162  -0.316  -0.433  0.00  0.00    +0.133 C 
ATOM     13  C   UNL     1      -5.932   1.643  -1.521  0.00  0.00    +0.236 C 
ATOM     14  O   UNL     1      -5.440   2.055  -2.609  0.00  0.00    -0.274 OA
ATOM     15  C   UNL     1      -6.133   2.710  -0.439  0.00  0.00    +0.162 C 
ATOM     16  N   UNL     1      -5.048   2.654   0.577  0.00  0.00    -0.291 N 
ATOM     17  C   UNL     1      -5.276   2.090   1.917  0.00  0.00    +0.133 C 
ATOM     18  C   UNL     1      -3.767   3.245   0.229  0.00  0.00    +0.236 C 
ATOM     19  O   UNL     1      -3.493   3.414  -0.993  0.00  0.00    -0.274 OA
ATOM     20  C   UNL     1      -2.741   3.721   1.258  0.00  0.00    +0.162 C 
ATOM     21  N   UNL     1      -1.370   3.475   0.749  0.00  0.00    -0.291 N 
ATOM     22  C   UNL     1      -0.802   2.127   0.866  0.00  0.00    +0.133 C 
ATOM     23  C   UNL     1      -0.703   4.440  -0.100  0.00  0.00    +0.236 C 
ATOM     24  O   UNL     1      -1.342   4.985  -1.041  0.00  0.00    -0.274 OA
ATOM     25  C   UNL     1       0.743   4.842   0.089  0.00  0.00    +0.156 C 
ATOM     26  C   UNL     1       1.149   4.960   1.561  0.00  0.00    +0.038 C 
ATOM     27  N   UNL     1       1.641   3.943  -0.643  0.00  0.00    -0.303 N 
ATOM     28  C   UNL     1       2.917   4.388  -1.132  0.00  0.00    +0.234 C 
ATOM     29  O   UNL     1       3.323   5.555  -0.873  0.00  0.00    -0.274 OA
ATOM     30  C   UNL     1       3.781   3.471  -1.958  0.00  0.00    +0.156 C 
ATOM     31  C   UNL     1       3.978   4.038  -3.363  0.00  0.00    +0.038 C 
ATOM     32  N   UNL     1       5.079   3.299  -1.309  0.00  0.00    -0.303 N 
ATOM     33  C   UNL     1       5.823   2.068  -1.367  0.00  0.00    +0.234 C 
ATOM     34  O   UNL     1       5.415   1.123  -2.098  0.00  0.00    -0.274 OA
ATOM     35  C   UNL     1       7.055   1.839  -0.516  0.00  0.00    +0.162 C 
ATOM     36  N   UNL     1       6.678   1.304   0.811  0.00  0.00    -0.291 N 
ATOM     37  C   UNL     1       5.682   2.012   1.632  0.00  0.00    +0.133 C 
ATOM     38  C   UNL     1       7.380   0.158   1.352  0.00  0.00    +0.237 C 
ATOM     39  O   UNL     1       8.446  -0.239   0.806  0.00  0.00    -0.274 OA
ATOM     40  C   UNL     1       6.865  -0.627   2.539  0.00  0.00    +0.162 C 
ATOM     41  N   UNL     1       6.617  -2.006   2.106  0.00  0.00    -0.302 N 
ATOM     42  C   UNL     1       5.438  -2.363   1.365  0.00  0.00    +0.234 C 
ATOM     43  O   UNL     1       4.592  -1.469   1.084  0.00  0.00    -0.274 OA
ATOM     44  C   UNL     1       5.096  -3.807   1.041  0.00  0.00    +0.162 C 
ATOM     45  N   UNL     1       4.240  -3.912  -0.164  0.00  0.00    -0.292 N 
ATOM     46  C   UNL     1       4.514  -3.120  -1.377  0.00  0.00    +0.133 C 
ATOM     47  C   UNL     1       3.016  -4.669  -0.085  0.00  0.00    +0.233 C 
ATOM     48  O   UNL     1       2.316  -4.613   0.966  0.00  0.00    -0.274 OA
ATOM     49  C   UNL     1       2.561  -5.572  -1.200  0.00  0.00    +0.203 C 
ATOM     50  N   UNL     1       1.157  -5.294  -1.545  0.00  0.00    -0.294 N 
ATOM     51  C   UNL     1       0.116  -5.998  -0.786  0.00  0.00    +0.132 C 
ATOM     52  C   UNL     1       0.864  -4.229  -2.491  0.00  0.00    +0.236 C 
ATOM     53  O   UNL     1       1.823  -3.572  -2.980  0.00  0.00    -0.274 OA
ATOM     54  H   UNL     1      -2.326  -4.711  -2.107  0.00  0.00    +0.150 HD
ATOM     55  H   UNL     1       1.333   2.968  -0.854  0.00  0.00    +0.149 HD
ATOM     56  H   UNL     1       5.548   4.155  -0.932  0.00  0.00    +0.149 HD
ATOM     57  H   UNL     1       7.357  -2.717   2.275  0.00  0.00    +0.150 HD
ENDROOT
BRANCH  10  58
ATOM     58  C   UNL     1      -6.106  -1.174  -3.508  0.00  0.00    +0.012 C 
ATOM     59  C   UNL     1      -7.566  -1.611  -3.310  0.00  0.00    +0.009 C 
ATOM     60  C   UNL     1      -6.046  -0.096  -4.603  0.00  0.00    +0.009 C 
ENDBRANCH  10  58
BRANCH  40  61
ATOM     61  C   UNL     1       7.872  -0.595   3.725  0.00  0.00    +0.012 C 
ATOM     62  C   UNL     1       7.338  -1.399   4.925  0.00  0.00    +0.009 C 
ATOM     63  C   UNL     1       8.177   0.839   4.184  0.00  0.00    +0.009 C 
ENDBRANCH  40  61
BRANCH   1  65
ATOM     64  C   UNL     1      -0.924  -6.141  -4.201  0.00  0.00    +0.006 C 
ATOM     65  C   UNL     1      -0.873  -4.618  -4.312  0.00  0.00    +0.028 C 
ENDBRANCH   1  65
BRANCH   5  66
ATOM     66  C   UNL     1      -2.675  -3.067   1.442  0.00  0.00    +0.147 C 
BRANCH  66  67
ATOM     67  O   UNL     1      -1.956  -4.229   1.777  0.00  0.00    -0.389 OA
ATOM     68  H   UNL     1      -2.401  -5.006   1.353  0.00  0.00    +0.210 HD
ENDBRANCH  66  67
BRANCH  66  69
ATOM     69  C   UNL     1      -3.964  -2.945   2.314  0.00  0.00    +0.021 C 
ATOM     70  C   UNL     1      -3.590  -2.551   3.754  0.00  0.00    +0.010 C 
BRANCH  69  71
ATOM     71  C   UNL     1      -4.811  -4.241   2.314  0.00  0.00    +0.032 C 
BRANCH  71  72
ATOM     72  C   UNL     1      -6.167  -4.037   2.932  0.00  0.00    -0.031 C 
ATOM     73  C   UNL     1      -7.114  -3.319   2.310  0.00  0.00    -0.034 C 
ATOM     74  C   UNL     1      -8.462  -3.122   2.928  0.00  0.00    +0.035 C 
ENDBRANCH  71  72
ENDBRANCH  69  71
ENDBRANCH  66  69
ENDBRANCH   5  66
BRANCH  15  75
ATOM     75  C   UNL     1      -7.562   2.868   0.165  0.00  0.00    +0.035 C 
BRANCH  75  76
ATOM     76  C   UNL     1      -8.626   3.533  -0.755  0.00  0.00    -0.015 C 
ATOM     77  C   UNL     1      -8.729   2.909  -2.155  0.00  0.00    +0.007 C 
ATOM     78  C   UNL     1      -8.438   5.054  -0.862  0.00  0.00    +0.007 C 
ENDBRANCH  75  76
ENDBRANCH  15  75
BRANCH  20  79
ATOM     79  C   UNL     1      -2.926   5.222   1.628  0.00  0.00    +0.035 C 
BRANCH  79  80
ATOM     80  C   UNL     1      -4.069   5.509   2.635  0.00  0.00    -0.015 C 
ATOM     81  C   UNL     1      -3.695   6.664   3.577  0.00  0.00    +0.007 C 
ATOM     82  C   UNL     1      -5.381   5.851   1.913  0.00  0.00    +0.007 C 
ENDBRANCH  79  80
ENDBRANCH  20  79
BRANCH  35  83
ATOM     83  C   UNL     1       7.970   3.075  -0.349  0.00  0.00    +0.035 C 
BRANCH  83  84
ATOM     84  C   UNL     1       8.475   3.685  -1.682  0.00  0.00    -0.015 C 
ATOM     85  C   UNL     1       9.485   2.765  -2.384  0.00  0.00    +0.007 C 
ATOM     86  C   UNL     1       9.112   5.056  -1.419  0.00  0.00    +0.007 C 
ENDBRANCH  83  84
ENDBRANCH  35  83
BRANCH  44  87
ATOM     87  C   UNL     1       6.285  -4.808   0.988  0.00  0.00    +0.035 C 
BRANCH  87  88
ATOM     88  C   UNL     1       7.365  -4.522  -0.093  0.00  0.00    -0.015 C 
ATOM     89  C   UNL     1       7.152  -5.394  -1.343  0.00  0.00    +0.007 C 
ATOM     90  C   UNL     1       8.778  -4.775   0.455  0.00  0.00    +0.007 C 
ENDBRANCH  87  88
ENDBRANCH  44  87
TORSDOF 16
