REMARK  Name = 
REMARK  4 active torsions:
REMARK  status: ('A' for Active; 'I' for Inactive)
REMARK    1  A    between atoms: C_1  and  N_2
REMARK    2  A    between atoms: N_5  and  C_8
REMARK    3  A    between atoms: C_8  and  C_9
REMARK    4  A    between atoms: C_8  and  C_15
REMARK                            x       y       z     vdW  Elec       q    Type
REMARK                         _______ _______ _______ _____ _____    ______ ____
ROOT
ATOM      1  C   UNL     1      -0.883  -0.090   0.690  0.00  0.00    +0.117 C 
ENDROOT
BRANCH   1   6
ATOM      2  C   UNL     1       4.568   0.103   0.111  0.00  0.00    +0.105 C 
ATOM      3  N   UNL     1       3.250   0.695   0.386  0.00  0.00    -0.303 NA
ATOM      4  C   UNL     1       2.769   0.283   1.726  0.00  0.00    +0.099 C 
ATOM      5  C   UNL     1       1.249   0.435   1.838  0.00  0.00    +0.100 C 
ATOM      6  N   UNL     1       0.550  -0.453   0.880  0.00  0.00    -0.289 NA
ATOM      7  C   UNL     1       1.322  -0.734  -0.357  0.00  0.00    +0.100 C 
ATOM      8  C   UNL     1       2.288   0.410  -0.709  0.00  0.00    +0.099 C 
ENDBRANCH   1   6
BRANCH   1   9
ATOM      9  C   UNL     1      -1.739  -1.289   0.281  0.00  0.00    -0.026 A 
ATOM     10  C   UNL     1      -3.095  -1.091  -0.055  0.00  0.00    +0.005 A 
ATOM     11  C   UNL     1      -3.914  -2.174  -0.386  0.00  0.00    +0.000 A 
ATOM     12  C   UNL     1      -3.404  -3.472  -0.359  0.00  0.00    +0.000 A 
ATOM     13  C   UNL     1      -2.077  -3.691   0.015  0.00  0.00    +0.000 A 
ATOM     14  C   UNL     1      -1.252  -2.612   0.347  0.00  0.00    +0.005 A 
ENDBRANCH   1   9
BRANCH   1  15
ATOM     15  C   UNL     1      -1.070   1.120  -0.230  0.00  0.00    -0.026 A 
ATOM     16  C   UNL     1      -1.157   2.411   0.327  0.00  0.00    +0.005 A 
ATOM     17  C   UNL     1      -1.310   3.532  -0.494  0.00  0.00    +0.000 A 
ATOM     18  C   UNL     1      -1.389   3.381  -1.879  0.00  0.00    +0.000 A 
ATOM     19  C   UNL     1      -1.326   2.108  -2.446  0.00  0.00    +0.000 A 
ATOM     20  C   UNL     1      -1.173   0.983  -1.631  0.00  0.00    +0.005 A 
ENDBRANCH   1  15
TORSDOF 3
