REMARK  Name = 
REMARK  1 active torsions:
REMARK  status: ('A' for Active; 'I' for Inactive)
REMARK    1  A    between atoms: N_1  and  C_2
REMARK                            x       y       z     vdW  Elec       q    Type
REMARK                         _______ _______ _______ _____ _____    ______ ____
ROOT
ATOM      1  C   UNL     1      -0.512   0.207  -0.485  0.00  0.00    +0.168 C 
ATOM      2  C   UNL     1      -0.150  -1.157   0.141  0.00  0.00    +0.218 C 
ATOM      3  O   UNL     1       1.256  -1.357   0.054  0.00  0.00    -0.278 OA
ATOM      4  N   UNL     1       1.779  -0.114  -0.120  0.00  0.00    -0.193 N 
ATOM      5  C   UNL     1       0.808   0.821  -0.505  0.00  0.00    +0.255 C 
ATOM      6  O   UNL     1       1.058   2.026  -0.775  0.00  0.00    -0.272 OA
ATOM      7  H   UNL     1       2.655   0.184   0.364  0.00  0.00    +0.182 HD
ENDROOT
BRANCH   1   8
ATOM      8  N   UNL     1      -1.449   0.976   0.337  0.00  0.00    -0.318 NA
ATOM      9  H   UNL     1      -1.080   1.060   1.313  0.00  0.00    +0.119 HD
ATOM     10  H   UNL     1      -2.347   0.443   0.389  0.00  0.00    +0.119 HD
ENDBRANCH   1   8
TORSDOF 1
