REMARK  Name = 
REMARK  5 active torsions:
REMARK  status: ('A' for Active; 'I' for Inactive)
REMARK    1  A    between atoms: C_1  and  N_2
REMARK    2  A    between atoms: N_2  and  C_3
REMARK    3  A    between atoms: N_2  and  C_4
REMARK    4  A    between atoms: C_4  and  C_5
REMARK    5  A    between atoms: C_5  and  C_6
REMARK                            x       y       z     vdW  Elec       q    Type
REMARK                         _______ _______ _______ _____ _____    ______ ____
ROOT
ATOM      1  C   UNL     1       0.304  -1.197   0.592  0.00  0.00    -0.017 C 
ATOM      2  C   UNL     1      -0.789  -0.543   0.149  0.00  0.00    -0.013 C 
ATOM      3  C   UNL     1      -1.993  -1.301  -0.222  0.00  0.00    -0.010 A 
ATOM      4  C   UNL     1      -1.908  -2.280  -1.228  0.00  0.00    +0.009 A 
ATOM      5  C   UNL     1      -3.034  -3.016  -1.595  0.00  0.00    +0.001 A 
ATOM      6  C   UNL     1      -4.253  -2.791  -0.957  0.00  0.00    +0.001 A 
ATOM      7  C   UNL     1      -4.349  -1.826   0.048  0.00  0.00    +0.008 A 
ATOM      8  C   UNL     1      -3.230  -1.059   0.417  0.00  0.00    -0.017 A 
ATOM      9  C   UNL     1      -3.383  -0.113   1.550  0.00  0.00    +0.009 C 
ATOM     10  C   UNL     1      -2.759   1.066   1.696  0.00  0.00    +0.009 C 
ATOM     11  C   UNL     1      -1.804   1.676   0.741  0.00  0.00    -0.017 A 
ATOM     12  C   UNL     1      -1.805   3.077   0.617  0.00  0.00    +0.008 A 
ATOM     13  C   UNL     1      -0.917   3.716  -0.251  0.00  0.00    +0.001 A 
ATOM     14  C   UNL     1      -0.013   2.966  -1.003  0.00  0.00    +0.001 A 
ATOM     15  C   UNL     1       0.015   1.577  -0.876  0.00  0.00    +0.009 A 
ATOM     16  C   UNL     1      -0.854   0.924   0.016  0.00  0.00    -0.010 A 
ENDROOT
BRANCH   1  17
ATOM     17  C   UNL     1       1.568  -0.531   1.070  0.00  0.00    +0.043 C 
BRANCH  17  18
ATOM     18  C   UNL     1       2.718  -0.799   0.093  0.00  0.00    +0.088 C 
BRANCH  18  20
ATOM     19  C   UNL     1       3.938   1.303  -0.033  0.00  0.00    +0.104 C 
ATOM     20  N   UNL     1       3.933  -0.067   0.513  0.00  0.00    -0.308 NA
ATOM     21  C   UNL     1       5.141  -0.776   0.060  0.00  0.00    +0.104 C 
ENDBRANCH  18  20
ENDBRANCH  17  18
ENDBRANCH   1  17
TORSDOF 3
