REMARK  Name = 
REMARK  3 active torsions:
REMARK  status: ('A' for Active; 'I' for Inactive)
REMARK    1  A    between atoms: N_1  and  S_2
REMARK    2  A    between atoms: S_2  and  C_5
REMARK    3  A    between atoms: C_11  and  C_18
REMARK                            x       y       z     vdW  Elec       q    Type
REMARK                         _______ _______ _______ _____ _____    ______ ____
ROOT
ATOM      1  C   UNL     1       4.072   0.442   0.108  0.00  0.00    +0.125 A 
ATOM      2  C   UNL     1       3.485   1.491  -0.630  0.00  0.00    +0.069 A 
ATOM      3 CL   UNL     1       4.456   2.666  -1.511  0.00  0.00    -0.081 Cl
ATOM      4  C   UNL     1       2.091   1.618  -0.675  0.00  0.00    +0.047 A 
ATOM      5  C   UNL     1       1.269   0.716   0.012  0.00  0.00    +0.056 A 
ATOM      6  N   UNL     1      -0.160   0.867  -0.036  0.00  0.00    -0.326 N 
ATOM      7  C   UNL     1      -1.040   0.214   0.947  0.00  0.00    +0.163 C 
ATOM      8  N   UNL     1      -0.800  -1.235   0.968  0.00  0.00    -0.170 NA
ATOM      9  S   UNL     1       0.820  -1.511   1.522  0.00  0.00    +0.062 S 
ATOM     10  O   UNL     1       0.885  -1.337   3.013  0.00  0.00    -0.153 OA
ATOM     11  O   UNL     1       1.242  -2.905   1.151  0.00  0.00    -0.153 OA
ATOM     12  C   UNL     1       1.855  -0.337   0.731  0.00  0.00    +0.128 A 
ATOM     13  C   UNL     1       3.246  -0.470   0.782  0.00  0.00    +0.060 A 
ATOM     14  H   UNL     1      -0.571   1.519  -0.743  0.00  0.00    +0.148 HD
ATOM     15  H   UNL     1      -0.831  -1.587  -0.017  0.00  0.00    +0.150 HD
ENDROOT
BRANCH   7  16
ATOM     16  C   UNL     1      -2.527   0.561   0.671  0.00  0.00    +0.033 C 
ATOM     17  C   UNL     1      -3.516   0.067   1.763  0.00  0.00    +0.015 C 
ATOM     18  C   UNL     1      -4.610  -0.640   0.931  0.00  0.00    +0.012 C 
ATOM     19  C   UNL     1      -3.774  -1.344  -0.114  0.00  0.00    +0.015 C 
ATOM     20  C   UNL     1      -3.141  -0.054  -0.618  0.00  0.00    +0.018 C 
ATOM     21  C   UNL     1      -4.401   0.729  -0.891  0.00  0.00    -0.027 C 
ATOM     22  C   UNL     1      -5.279   0.393   0.058  0.00  0.00    -0.027 C 
ENDBRANCH   7  16
BRANCH   1  23
ATOM     23  S   UNL     1       5.828   0.250   0.183  0.00  0.00    +0.057 S 
ATOM     24  O   UNL     1       6.443   1.491   0.765  0.00  0.00    -0.153 OA
ATOM     25  O   UNL     1       6.189  -0.923   1.052  0.00  0.00    -0.153 OA
BRANCH  23  26
ATOM     26  N   UNL     1       6.447  -0.017  -1.409  0.00  0.00    -0.203 NA
ATOM     27  H   UNL     1       7.473  -0.192  -1.313  0.00  0.00    +0.144 HD
ATOM     28  H   UNL     1       6.020  -0.904  -1.758  0.00  0.00    +0.144 HD
ENDBRANCH  23  26
ENDBRANCH   1  23
TORSDOF 3
