REMARK  Name = 
REMARK  5 active torsions:
REMARK  status: ('A' for Active; 'I' for Inactive)
REMARK    1  A    between atoms: C_2  and  C_3
REMARK    2  A    between atoms: C_3  and  N_4
REMARK    3  A    between atoms: N_4  and  C_5
REMARK    4  A    between atoms: N_4  and  P_8
REMARK    5  A    between atoms: C_5  and  C_6
REMARK                            x       y       z     vdW  Elec       q    Type
REMARK                         _______ _______ _______ _____ _____    ______ ____
ROOT
ATOM      1  P   UNL     1       0.310  -0.345   1.133  0.00  0.00    +0.346 P 
ATOM      2  O   UNL     1      -0.175  -0.668   2.529  0.00  0.00    -0.254 OA
ATOM      3  N   UNL     1       1.195  -1.718   0.481  0.00  0.00    -0.232 NA
ATOM      4  C   UNL     1       2.179  -1.194  -0.467  0.00  0.00    +0.093 C 
ATOM      5  C   UNL     1       3.235  -0.320   0.237  0.00  0.00    +0.044 C 
ATOM      6  C   UNL     1       2.677   0.461   1.445  0.00  0.00    +0.171 C 
ATOM      7  O   UNL     1       1.387   0.976   1.199  0.00  0.00    -0.305 OA
ATOM      8  H   UNL     1       0.516  -2.307  -0.053  0.00  0.00    +0.133 HD
ENDROOT
BRANCH   1   9
ATOM      9  N   UNL     1      -1.064   0.035   0.078  0.00  0.00    -0.217 NA
BRANCH   9  10
ATOM     10  C   UNL     1      -1.491   1.437   0.277  0.00  0.00    +0.111 C 
BRANCH  10  12
ATOM     11 CL   UNL     1      -1.333   4.024  -0.543  0.00  0.00    -0.124 Cl
ATOM     12  C   UNL     1      -0.842   2.328  -0.780  0.00  0.00    +0.124 C 
ENDBRANCH  10  12
ENDBRANCH   9  10
BRANCH   9  13
ATOM     13  C   UNL     1      -2.165  -0.918   0.327  0.00  0.00    +0.111 C 
BRANCH  13  14
ATOM     14  C   UNL     1      -3.035  -1.060  -0.923  0.00  0.00    +0.124 C 
ATOM     15 CL   UNL     1      -4.326  -2.254  -0.639  0.00  0.00    -0.124 Cl
ENDBRANCH  13  14
ENDBRANCH   9  13
ENDBRANCH   1   9
TORSDOF 5
