REMARK  Name = 
REMARK  8 active torsions:
REMARK  status: ('A' for Active; 'I' for Inactive)
REMARK    1  A    between atoms: C_1  and  C_2
REMARK    2  A    between atoms: C_4  and  O_10
REMARK    3  A    between atoms: C_6  and  C_7
REMARK    4  A    between atoms: C_6  and  C_8
REMARK    5  A    between atoms: O_10  and  C_11
REMARK    6  A    between atoms: C_11  and  C_13
REMARK    7  A    between atoms: C_13  and  O_14
REMARK    8  A    between atoms: C_13  and  C_15
REMARK                            x       y       z     vdW  Elec       q    Type
REMARK                         _______ _______ _______ _____ _____    ______ ____
ROOT
ATOM      1  C   UNL     1       1.581   1.202   0.375  0.00  0.00    +0.341 C 
ATOM      2  O   UNL     1       1.397   2.215  -0.355  0.00  0.00    -0.248 OA
ENDROOT
BRANCH   1   3
ATOM      3  O   UNL     1       0.646   0.161   0.401  0.00  0.00    -0.459 OA
BRANCH   3   7
ATOM      4  C   UNL     1      -3.014  -2.727  -1.184  0.00  0.00    +0.007 C 
ATOM      5  C   UNL     1      -2.481  -1.291  -1.133  0.00  0.00    -0.010 C 
ATOM      6  C   UNL     1      -1.130  -1.248  -0.400  0.00  0.00    +0.048 C 
ATOM      7  C   UNL     1      -0.580   0.181  -0.329  0.00  0.00    +0.177 C 
ATOM      8  C   UNL     1      -1.591   1.114   0.369  0.00  0.00    +0.051 C 
ATOM      9  C   UNL     1      -2.995   1.099  -0.294  0.00  0.00    -0.031 C 
ATOM     10  C   UNL     1      -3.976   1.871   0.614  0.00  0.00    +0.011 C 
ATOM     11  C   UNL     1      -2.962   1.812  -1.667  0.00  0.00    +0.011 C 
ATOM     12  C   UNL     1      -3.502  -0.362  -0.442  0.00  0.00    +0.010 C 
ENDBRANCH   3   7
ENDBRANCH   1   3
BRANCH   1  13
ATOM     13  C   UNL     1       2.839   1.083   1.178  0.00  0.00    +0.253 C 
BRANCH  13  14
ATOM     14  C   UNL     1       3.801   0.154   0.474  0.00  0.00    -0.008 A 
ATOM     15  C   UNL     1       3.607  -1.240   0.506  0.00  0.00    +0.007 A 
ATOM     16  C   UNL     1       4.483  -2.091  -0.174  0.00  0.00    +0.000 A 
ATOM     17  C   UNL     1       5.554  -1.560  -0.897  0.00  0.00    +0.000 A 
ATOM     18  C   UNL     1       5.749  -0.178  -0.945  0.00  0.00    +0.000 A 
ATOM     19  C   UNL     1       4.875   0.678  -0.267  0.00  0.00    +0.007 A 
ENDBRANCH  13  14
BRANCH  13  20
ATOM     20  O   UNL     1       2.528   0.597   2.458  0.00  0.00    -0.376 OA
ATOM     21  H   UNL     1       3.338   0.727   3.017  0.00  0.00    +0.211 HD
ENDBRANCH  13  20
ENDBRANCH   1  13
TORSDOF 5
