REMARK  Name = 
REMARK  10 active torsions:
REMARK  status: ('A' for Active; 'I' for Inactive)
REMARK    1  A    between atoms: C_1  and  N_2
REMARK    2  A    between atoms: N_2  and  C_3
REMARK    3  A    between atoms: N_2  and  C_4
REMARK    4  A    between atoms: C_4  and  C_5
REMARK    5  A    between atoms: C_5  and  O_6
REMARK    6  A    between atoms: O_6  and  C_7
REMARK    7  A    between atoms: C_7  and  C_9
REMARK    8  A    between atoms: C_9  and  C_10
REMARK    9  A    between atoms: C_9  and  C_16
REMARK   10  A    between atoms: C_16  and  O_17
REMARK                            x       y       z     vdW  Elec       q    Type
REMARK                         _______ _______ _______ _____ _____    ______ ____
ROOT
ATOM      1  C   UNL     1       0.052   0.282   1.855  0.00  0.00    +0.159 C 
ENDROOT
BRANCH   1   2
ATOM      2  C   UNL     1      -0.687   1.517   1.362  0.00  0.00    -0.031 A 
ATOM      3  C   UNL     1      -1.095   2.504   2.279  0.00  0.00    +0.004 A 
ATOM      4  C   UNL     1      -1.771   3.645   1.838  0.00  0.00    +0.000 A 
ATOM      5  C   UNL     1      -2.056   3.810   0.482  0.00  0.00    +0.000 A 
ATOM      6  C   UNL     1      -1.668   2.832  -0.439  0.00  0.00    +0.000 A 
ATOM      7  C   UNL     1      -0.991   1.690  -0.003  0.00  0.00    +0.004 A 
ENDBRANCH   1   2
BRANCH   1   8
ATOM      8  C   UNL     1      -0.887  -0.975   1.935  0.00  0.00    +0.083 C 
ATOM      9  C   UNL     1      -1.421  -1.479   0.579  0.00  0.00    +0.036 C 
ATOM     10  C   UNL     1      -1.741  -2.945   0.802  0.00  0.00    +0.003 C 
ATOM     11  C   UNL     1      -0.772  -3.435   1.874  0.00  0.00    +0.003 C 
ATOM     12  C   UNL     1      -0.173  -2.197   2.541  0.00  0.00    +0.036 C 
BRANCH   8  13
ATOM     13  O   UNL     1      -1.975  -0.681   2.789  0.00  0.00    -0.387 OA
ATOM     14  H   UNL     1      -2.571  -0.030   2.337  0.00  0.00    +0.210 HD
ENDBRANCH   8  13
ENDBRANCH   1   8
BRANCH   1  15
ATOM     15  C   UNL     1       1.359   0.120   1.091  0.00  0.00    +0.317 C 
ATOM     16  O   UNL     1       2.238   1.022   1.190  0.00  0.00    -0.250 OA
BRANCH  15  17
ATOM     17  O   UNL     1       1.617  -1.020   0.317  0.00  0.00    -0.463 OA
BRANCH  17  18
ATOM     18  C   UNL     1       2.700  -1.119  -0.610  0.00  0.00    +0.247 C 
BRANCH  18  19
ATOM     19  C   UNL     1       2.194  -0.913  -2.042  0.00  0.00    +0.125 C 
BRANCH  19  21
ATOM     20  C   UNL     1       0.469   0.231  -3.301  0.00  0.00    +0.104 C 
ATOM     21  N   UNL     1       1.391   0.326  -2.157  0.00  0.00    -0.305 NA
ATOM     22  C   UNL     1       2.254   1.508  -2.319  0.00  0.00    +0.104 C 
ENDBRANCH  19  21
ENDBRANCH  18  19
ENDBRANCH  17  18
ENDBRANCH  15  17
ENDBRANCH   1  15
TORSDOF 8
