REMARK  Name = 
REMARK  6 active torsions:
REMARK  status: ('A' for Active; 'I' for Inactive)
REMARK    1  A    between atoms: O_1  and  C_2
REMARK    2  A    between atoms: C_2  and  C_3
REMARK    3  A    between atoms: C_2  and  C_11
REMARK    4  A    between atoms: C_2  and  C_16
REMARK    5  A    between atoms: C_3  and  C_4
REMARK    6  A    between atoms: C_4  and  N_5
REMARK                            x       y       z     vdW  Elec       q    Type
REMARK                         _______ _______ _______ _____ _____    ______ ____
ROOT
ATOM      1  C   UNL     1      -0.891   0.830   0.107  0.00  0.00    +0.095 C 
ENDROOT
BRANCH   1   2
ATOM      2  C   UNL     1      -1.835   1.911  -0.463  0.00  0.00    -0.016 A 
ATOM      3  C   UNL     1      -2.008   3.146   0.205  0.00  0.00    +0.006 A 
ATOM      4  C   UNL     1      -2.895   4.109  -0.284  0.00  0.00    +0.000 A 
ATOM      5  C   UNL     1      -3.646   3.853  -1.431  0.00  0.00    +0.000 A 
ATOM      6  C   UNL     1      -3.522   2.627  -2.083  0.00  0.00    +0.000 A 
ATOM      7  C   UNL     1      -2.637   1.659  -1.601  0.00  0.00    +0.006 A 
ENDBRANCH   1   2
BRANCH   1   8
ATOM      8  C   UNL     1      -1.780  -0.203   0.898  0.00  0.00    +0.025 C 
ATOM      9  C   UNL     1      -2.517  -1.264   0.072  0.00  0.00    +0.007 C 
ATOM     10  C   UNL     1      -2.798  -2.388   1.051  0.00  0.00    +0.000 C 
ATOM     11  C   UNL     1      -1.608  -2.399   1.996  0.00  0.00    +0.000 C 
ATOM     12  C   UNL     1      -1.068  -0.971   2.026  0.00  0.00    +0.007 C 
ENDBRANCH   1   8
BRANCH   1  13
ATOM     13  O   UNL     1      -0.013   1.429   1.037  0.00  0.00    -0.384 OA
ATOM     14  H   UNL     1       0.541   2.100   0.557  0.00  0.00    +0.211 HD
ENDBRANCH   1  13
BRANCH   1  15
ATOM     15  C   UNL     1      -0.028   0.222  -1.060  0.00  0.00    +0.055 C 
BRANCH  15  16
ATOM     16  C   UNL     1       1.034  -0.825  -0.665  0.00  0.00    +0.087 C 
BRANCH  16  17
ATOM     17  N   UNL     1       2.051  -0.285   0.271  0.00  0.00    -0.302 NA
ATOM     18  C   UNL     1       2.691  -1.335   1.113  0.00  0.00    +0.084 C 
ATOM     19  C   UNL     1       4.131  -1.698   0.692  0.00  0.00    +0.015 C 
ATOM     20  C   UNL     1       4.308  -1.587  -0.819  0.00  0.00    +0.002 C 
ATOM     21  C   UNL     1       4.009  -0.161  -1.310  0.00  0.00    +0.015 C 
ATOM     22  C   UNL     1       3.042   0.601  -0.380  0.00  0.00    +0.084 C 
ENDBRANCH  16  17
ENDBRANCH  15  16
ENDBRANCH   1  15
TORSDOF 6
