REMARK  Name = 
REMARK  5 active torsions:
REMARK  status: ('A' for Active; 'I' for Inactive)
REMARK    1  A    between atoms: C_4  and  C_5
REMARK    2  A    between atoms: C_17  and  O_18
REMARK    3  A    between atoms: C_17  and  C_19
REMARK    4  A    between atoms: C_19  and  C_20
REMARK    5  A    between atoms: C_22  and  C_23
REMARK                            x       y       z     vdW  Elec       q    Type
REMARK                         _______ _______ _______ _____ _____    ______ ____
ROOT
ATOM      1  C   UNL     1      -4.388   2.137   0.652  0.00  0.00    +0.064 C 
ATOM      2  C   UNL     1      -3.392   2.508  -0.446  0.00  0.00    +0.016 C 
ATOM      3  C   UNL     1      -2.905   1.869   0.850  0.00  0.00    +0.011 C 
ATOM      4  C   UNL     1      -2.412   0.387   0.799  0.00  0.00    +0.001 C 
ATOM      5  C   UNL     1      -2.413  -0.126   2.259  0.00  0.00    +0.017 C 
ATOM      6  C   UNL     1      -3.324  -0.550  -0.012  0.00  0.00    -0.020 C 
ATOM      7  C   UNL     1      -4.643  -0.312  -0.112  0.00  0.00    +0.052 C 
ATOM      8  C   UNL     1      -5.239   0.950   0.333  0.00  0.00    +0.160 C 
ATOM      9  O   UNL     1      -6.492   1.059   0.387  0.00  0.00    -0.292 OA
ATOM     10  C   UNL     1      -2.744  -1.792  -0.613  0.00  0.00    +0.041 C 
ATOM     11 CL   UNL     1      -3.762  -2.996  -1.407  0.00  0.00    -0.084 Cl
ATOM     12  C   UNL     1      -1.424  -2.019  -0.613  0.00  0.00    -0.003 C 
ATOM     13  C   UNL     1      -0.438  -1.120   0.092  0.00  0.00    +0.021 C 
ATOM     14  C   UNL     1       0.928  -1.100  -0.630  0.00  0.00    +0.005 C 
ATOM     15  C   UNL     1       1.642  -2.422  -0.888  0.00  0.00    +0.008 C 
ATOM     16  C   UNL     1       3.121  -2.037  -1.081  0.00  0.00    +0.043 C 
ATOM     17  C   UNL     1       3.242  -0.512  -0.788  0.00  0.00    +0.129 C 
ATOM     18  C   UNL     1       1.973  -0.229   0.091  0.00  0.00    +0.007 C 
ATOM     19  C   UNL     1       2.235  -0.684   1.569  0.00  0.00    +0.015 C 
ATOM     20  C   UNL     1       1.444   1.230   0.100  0.00  0.00    +0.010 C 
ATOM     21  C   UNL     1       0.056   1.329   0.777  0.00  0.00    +0.005 C 
ATOM     22  C   UNL     1      -0.982   0.341   0.156  0.00  0.00    +0.007 C 
ENDROOT
BRANCH  17  23
ATOM     23  C   UNL     1       4.578  -0.169  -0.106  0.00  0.00    +0.162 C 
ATOM     24  C   UNL     1       5.301   1.120  -0.380  0.00  0.00    +0.089 C 
ATOM     25  O   UNL     1       5.074  -0.946   0.698  0.00  0.00    -0.295 OA
ENDBRANCH  17  23
BRANCH  17  26
ATOM     26  O   UNL     1       3.151   0.141  -2.039  0.00  0.00    -0.381 OA
ATOM     27  H   UNL     1       3.228   1.119  -1.905  0.00  0.00    +0.211 HD
ENDBRANCH  17  26
TORSDOF 2
