REMARK  Name = 
REMARK  1 active torsions:
REMARK  status: ('A' for Active; 'I' for Inactive)
REMARK    1  A    between atoms: C_1  and  N_2
REMARK                            x       y       z     vdW  Elec       q    Type
REMARK                         _______ _______ _______ _____ _____    ______ ____
ROOT
ATOM      1  C   UNL     1       5.045  -0.272  -0.175  0.00  0.00    +0.104 C 
ATOM      2  N   UNL     1       3.706  -0.016   0.379  0.00  0.00    -0.305 NA
ATOM      3  C   UNL     1       2.936  -1.271   0.427  0.00  0.00    +0.088 C 
ATOM      4  C   UNL     1       1.595  -1.052   1.131  0.00  0.00    +0.047 C 
ATOM      5  C   UNL     1       0.838   0.129   0.548  0.00  0.00    -0.059 C 
ATOM      6  C   UNL     1       1.659   1.351   0.170  0.00  0.00    +0.047 C 
ATOM      7  C   UNL     1       2.998   0.964  -0.463  0.00  0.00    +0.088 C 
ATOM      8  C   UNL     1      -0.523   0.152   0.516  0.00  0.00    -0.010 C 
ATOM      9  C   UNL     1      -1.287   1.303   0.002  0.00  0.00    -0.010 A 
ATOM     10  C   UNL     1      -1.258   2.523   0.699  0.00  0.00    +0.009 A 
ATOM     11  C   UNL     1      -1.965   3.627   0.219  0.00  0.00    +0.001 A 
ATOM     12  C   UNL     1      -2.710   3.521  -0.956  0.00  0.00    +0.001 A 
ATOM     13  C   UNL     1      -2.762   2.307  -1.645  0.00  0.00    +0.008 A 
ATOM     14  C   UNL     1      -2.076   1.179  -1.162  0.00  0.00    -0.017 A 
ATOM     15  C   UNL     1      -2.157  -0.077  -1.947  0.00  0.00    +0.009 C 
ATOM     16  C   UNL     1      -2.192  -1.321  -1.443  0.00  0.00    +0.009 C 
ATOM     17  C   UNL     1      -2.154  -1.680  -0.003  0.00  0.00    -0.017 A 
ATOM     18  C   UNL     1      -2.899  -2.793   0.422  0.00  0.00    +0.008 A 
ATOM     19  C   UNL     1      -2.886  -3.188   1.762  0.00  0.00    +0.001 A 
ATOM     20  C   UNL     1      -2.123  -2.482   2.693  0.00  0.00    +0.001 A 
ATOM     21  C   UNL     1      -1.358  -1.389   2.283  0.00  0.00    +0.009 A 
ATOM     22  C   UNL     1      -1.348  -0.996   0.933  0.00  0.00    -0.010 A 
ENDROOT
TORSDOF 0
