REMARK  Name = 
REMARK  3 active torsions:
REMARK  status: ('A' for Active; 'I' for Inactive)
REMARK    1  A    between atoms: N_1  and  C_2
REMARK    2  A    between atoms: C_2  and  C_3
REMARK    3  A    between atoms: C_3  and  S_4
REMARK                            x       y       z     vdW  Elec       q    Type
REMARK                         _______ _______ _______ _____ _____    ______ ____
ROOT
ATOM      1  C   UNL     1      -0.616   0.431  -0.263  0.00  0.00    +0.088 C 
ENDROOT
BRANCH   1   2
ATOM      2  N   UNL     1      -1.556  -0.629   0.100  0.00  0.00    -0.329 NA
ATOM      3  H   UNL     1      -1.802  -0.535   1.112  0.00  0.00    +0.118 HD
ATOM      4  H   UNL     1      -1.096  -1.558  -0.035  0.00  0.00    +0.118 HD
ENDBRANCH   1   2
BRANCH   1   5
ATOM      5  C   UNL     1       0.631   0.428   0.629  0.00  0.00    +0.080 C 
BRANCH   5   6
ATOM      6  S   UNL     1       1.689  -1.013   0.280  0.00  0.00    -0.177 S 
ATOM      7  H   UNL     1       2.641  -0.628   1.242  0.00  0.00    +0.102 HD
ENDBRANCH   5   6
ENDBRANCH   1   5
TORSDOF 3
