REMARK  Name = 
REMARK  5 active torsions:
REMARK  status: ('A' for Active; 'I' for Inactive)
REMARK    1  A    between atoms: N1_6  and  C1*_9
REMARK    2  A    between atoms: C4*_11  and  C5*_12
REMARK    3  A    between atoms: C5*_12  and  O5*_13
REMARK    4  A    between atoms: C3*_14  and  O3*_15
REMARK    5  A    between atoms: C2*_16  and  O2*_17
REMARK                            x       y       z     vdW  Elec       q    Type
REMARK                         _______ _______ _______ _____ _____    ______ ____
ROOT
ATOM      1  C1*   C A   1       0.171   0.024   0.767  0.00  0.00    +0.255 C 
ATOM      2  O4*   C A   1       1.149   0.971   0.407  0.00  0.00    -0.346 OA
ATOM      3  C4*   C A   1       2.402   0.322   0.474  0.00  0.00    +0.177 C 
ATOM      4  C3*   C A   1       2.184  -1.206   0.467  0.00  0.00    +0.178 C 
ATOM      5  C2*   C A   1       0.675  -1.361   0.370  0.00  0.00    +0.195 C 
ENDROOT
BRANCH   1  11
ATOM      6  N4    C A   1      -4.932   1.085  -1.467  0.00  0.00    -0.343 N 
ATOM      7  C4    C A   1      -3.650   0.818  -0.899  0.00  0.00    +0.123 A 
ATOM      8  N3    C A   1      -2.527   1.214  -1.549  0.00  0.00    -0.178 NA
ATOM      9  C2    C A   1      -1.289   0.979  -1.041  0.00  0.00    +0.352 A 
ATOM     10  O2    C A   1      -0.284   1.357  -1.700  0.00  0.00    -0.244 OA
ATOM     11  N1    C A   1      -1.147   0.334   0.168  0.00  0.00    -0.270 N 
ATOM     12  C6    C A   1      -2.266  -0.090   0.832  0.00  0.00    +0.096 A 
ATOM     13  C5    C A   1      -3.538   0.148   0.316  0.00  0.00    +0.061 A 
ATOM     14  H41   C A   1      -5.808   0.786  -0.982  0.00  0.00    +0.144 HD
ATOM     15  H42   C A   1      -5.009   1.586  -2.380  0.00  0.00    +0.144 HD
ENDBRANCH   1  11
BRANCH   4  16
ATOM     16  O3*   C A   1       2.687  -1.800   1.641  0.00  0.00    -0.386 OA
ATOM     17  H3*   C A   1       2.219  -1.395   2.418  0.00  0.00    +0.210 HD
ENDBRANCH   4  16
BRANCH   5  18
ATOM     18  O2*   C A   1       0.275  -1.724  -0.932  0.00  0.00    -0.385 OA
ATOM     19  H2*   C A   1       0.683  -1.084  -1.573  0.00  0.00    +0.210 HD
ENDBRANCH   5  18
BRANCH   3  20
ATOM     20  C5*   C A   1       3.270   0.792  -0.701  0.00  0.00    +0.190 C 
BRANCH  20  21
ATOM     21  O5*   C A   1       4.593   0.349  -0.544  0.00  0.00    -0.392 OA
ATOM     22  H5*   C A   1       4.665  -0.521  -1.017  0.00  0.00    +0.210 HD
ENDBRANCH  20  21
ENDBRANCH   3  20
TORSDOF 5
