REMARK  Name = 
REMARK  21 active torsions:
REMARK  status: ('A' for Active; 'I' for Inactive)
REMARK    1  A    between atoms: C_1  and  C_2
REMARK    2  A    between atoms: C_2  and  C_3
REMARK    3  A    between atoms: C_3  and  C_4
REMARK    4  A    between atoms: C_4  and  C_5
REMARK    5  A    between atoms: C_5  and  C_6
REMARK    6  A    between atoms: C_6  and  O_7
REMARK    7  A    between atoms: O_7  and  C_8
REMARK    8  A    between atoms: C_8  and  N_10
REMARK    9  A    between atoms: C_11  and  C_13
REMARK   10  A    between atoms: C_16  and  N_17
REMARK   11  A    between atoms: N_17  and  C_18
REMARK   12  A    between atoms: C_18  and  C_19
REMARK   13  A    between atoms: C_25  and  C_27
REMARK   14  A    between atoms: N_29  and  C_30
REMARK   15  A    between atoms: N_29  and  C_37
REMARK   16  A    between atoms: C_30  and  C_31
REMARK   17  A    between atoms: C_31  and  C_32
REMARK   18  A    between atoms: C_32  and  O_34
REMARK   19  A    between atoms: O_34  and  C_35
REMARK   20  A    between atoms: C_35  and  C_36
REMARK   21  A    between atoms: N_43  and  C_44
REMARK                            x       y       z     vdW  Elec       q    Type
REMARK                         _______ _______ _______ _____ _____    ______ ____
ROOT
ATOM      1  C   UNL     1      -1.535   0.944   1.362  0.00  0.00    +0.128 A 
ATOM      2  N   UNL     1      -2.399   1.794   0.748  0.00  0.00    -0.231 NA
ATOM      3  C   UNL     1      -3.268   0.968   0.142  0.00  0.00    +0.090 A 
ATOM      4  C   UNL     1      -2.937  -0.332   0.381  0.00  0.00    +0.069 A 
ATOM      5  C   UNL     1      -3.688  -1.389  -0.137  0.00  0.00    +0.029 A 
ATOM      6  C   UNL     1      -4.834  -1.072  -0.888  0.00  0.00    +0.015 A 
ATOM      7  C   UNL     1      -5.203   0.280  -1.103  0.00  0.00    +0.039 A 
ATOM      8  C   UNL     1      -4.389   1.319  -0.604  0.00  0.00    +0.043 A 
ATOM      9  N   UNL     1      -1.848  -0.369   1.170  0.00  0.00    -0.329 N 
ATOM     10  C   UNL     1      -1.148  -1.563   1.638  0.00  0.00    +0.150 C 
ENDROOT
BRANCH   7  11
ATOM     11  C   UNL     1      -6.438   0.608  -1.840  0.00  0.00    +0.252 C 
ATOM     12  O   UNL     1      -6.362   1.403  -2.817  0.00  0.00    -0.270 OA
ATOM     13  N   UNL     1      -7.721   0.066  -1.457  0.00  0.00    -0.252 N 
BRANCH  13  14
ATOM     14  C   UNL     1      -8.775   0.008  -2.438  0.00  0.00    +0.128 A 
ATOM     15  C   UNL     1     -10.092   0.387  -2.118  0.00  0.00    +0.044 A 
ATOM     16  C   UNL     1     -11.084   0.317  -3.098  0.00  0.00    +0.005 A 
ATOM     17  C   UNL     1     -10.765  -0.130  -4.380  0.00  0.00    +0.020 A 
ATOM     18  C   UNL     1      -9.449  -0.499  -4.664  0.00  0.00    +0.113 A 
ATOM     19  N   UNL     1      -8.494  -0.422  -3.699  0.00  0.00    -0.240 NA
ENDBRANCH  13  14
BRANCH  13  20
ATOM     20  C   UNL     1      -7.978  -0.363  -0.070  0.00  0.00    +0.126 C 
BRANCH  20  21
ATOM     21  C   UNL     1      -7.973   0.839   0.883  0.00  0.00    +0.140 C 
BRANCH  21  22
ATOM     22  C   UNL     1      -8.286   0.418   2.284  0.00  0.00    +0.309 C 
ATOM     23  O   UNL     1      -7.600  -0.486   2.840  0.00  0.00    -0.251 OA
BRANCH  22  24
ATOM     24  O   UNL     1      -9.321   1.057   2.978  0.00  0.00    -0.465 OA
BRANCH  24  25
ATOM     25  C   UNL     1      -9.691   0.728   4.315  0.00  0.00    +0.229 C 
ATOM     26  C   UNL     1     -10.478  -0.578   4.354  0.00  0.00    +0.048 C 
ENDBRANCH  24  25
ENDBRANCH  22  24
ENDBRANCH  21  22
ENDBRANCH  20  21
ENDBRANCH  13  20
ENDBRANCH   7  11
BRANCH   1  27
ATOM     27  C   UNL     1      -0.400   1.461   2.201  0.00  0.00    +0.176 C 
BRANCH  27  28
ATOM     28  N   UNL     1       0.525   2.236   1.373  0.00  0.00    -0.337 N 
ATOM     29  H   UNL     1       0.308   3.250   1.250  0.00  0.00    +0.147 HD
BRANCH  28  33
ATOM     30  C   UNL     1       4.078   0.753  -0.478  0.00  0.00    +0.012 A 
ATOM     31  C   UNL     1       3.209  -0.130   0.186  0.00  0.00    +0.013 A 
ATOM     32  C   UNL     1       2.036   0.340   0.783  0.00  0.00    +0.023 A 
ATOM     33  C   UNL     1       1.703   1.707   0.732  0.00  0.00    +0.027 A 
ATOM     34  C   UNL     1       2.562   2.584   0.054  0.00  0.00    +0.023 A 
ATOM     35  C   UNL     1       3.739   2.117  -0.537  0.00  0.00    +0.013 A 
BRANCH  30  37
ATOM     36  N   UNL     1       6.347   1.101  -1.183  0.00  0.00    -0.128 NA
ATOM     37  C   UNL     1       5.351   0.266  -1.071  0.00  0.00    +0.119 C 
ATOM     38  N   UNL     1       5.480  -1.113  -1.445  0.00  0.00    -0.344 N 
ATOM     39  H   UNL     1       6.397  -1.607  -1.433  0.00  0.00    +0.144 HD
ATOM     40  H   UNL     1       4.633  -1.690  -1.640  0.00  0.00    +0.144 HD
BRANCH  36  41
ATOM     41  C   UNL     1       7.637   0.874  -1.771  0.00  0.00    +0.426 C 
ATOM     42  O   UNL     1       7.831  -0.082  -2.571  0.00  0.00    -0.224 OA
BRANCH  41  43
ATOM     43  O   UNL     1       8.667   1.776  -1.488  0.00  0.00    -0.449 OA
BRANCH  43  44
ATOM     44  C   UNL     1      10.017   1.585  -1.907  0.00  0.00    +0.234 C 
BRANCH  44  45
ATOM     45  C   UNL     1      10.703   0.535  -1.030  0.00  0.00    +0.041 C 
BRANCH  45  46
ATOM     46  C   UNL     1      12.193   0.403  -1.385  0.00  0.00    +0.003 C 
BRANCH  46  47
ATOM     47  C   UNL     1      12.892  -0.712  -0.590  0.00  0.00    -0.000 C 
BRANCH  47  49
ATOM     48  C   UNL     1      13.870  -1.431   1.625  0.00  0.00    +0.004 C 
ATOM     49  C   UNL     1      13.107  -0.338   0.884  0.00  0.00    -0.003 C 
ENDBRANCH  47  49
ENDBRANCH  46  47
ENDBRANCH  45  46
ENDBRANCH  44  45
ENDBRANCH  43  44
ENDBRANCH  41  43
ENDBRANCH  36  41
ENDBRANCH  30  37
ENDBRANCH  28  33
ENDBRANCH  27  28
ENDBRANCH   1  27
TORSDOF 18
