REMARK  Name = 
REMARK  9 active torsions:
REMARK  status: ('A' for Active; 'I' for Inactive)
REMARK    1  A    between atoms: C_1  and  C_2
REMARK    2  A    between atoms: C_2  and  C_3
REMARK    3  A    between atoms: C_2  and  C_4
REMARK    4  A    between atoms: C_2  and  C_5
REMARK    5  A    between atoms: C_7  and  C_17
REMARK    6  A    between atoms: C_8  and  C_10
REMARK    7  A    between atoms: C_20  and  N_21
REMARK    8  A    between atoms: N_21  and  S_22
REMARK    9  A    between atoms: S_22  and  C_25
REMARK                            x       y       z     vdW  Elec       q    Type
REMARK                         _______ _______ _______ _____ _____    ______ ____
ROOT
ATOM      1  C   UNL     1      -0.179  -0.934  -0.449  0.00  0.00    +0.039 A 
ATOM      2  C   UNL     1       0.690  -0.795   0.652  0.00  0.00    +0.155 A 
ATOM      3  F   UNL     1       0.182  -0.544   1.887  0.00  0.00    -0.203 F 
ATOM      4  C   UNL     1       2.082  -0.938   0.486  0.00  0.00    +0.084 A 
ATOM      5  C   UNL     1       2.588  -1.254  -0.788  0.00  0.00    +0.027 A 
ATOM      6  C   UNL     1       1.723  -1.431  -1.869  0.00  0.00    +0.003 A 
ATOM      7  C   UNL     1       0.345  -1.278  -1.700  0.00  0.00    +0.013 A 
ENDROOT
BRANCH   1  10
ATOM      8  C   UNL     1      -3.799  -1.394  -0.488  0.00  0.00    +0.085 A 
ATOM      9  N   UNL     1      -2.508  -1.683  -0.774  0.00  0.00    -0.243 NA
ATOM     10  C   UNL     1      -1.638  -0.747  -0.298  0.00  0.00    +0.090 A 
ATOM     11  C   UNL     1      -2.248   0.341   0.345  0.00  0.00    +0.065 A 
ATOM     12  S   UNL     1      -3.908   0.077   0.330  0.00  0.00    -0.069 S 
BRANCH  11  13
ATOM     13  C   UNL     1      -1.619   1.569   0.871  0.00  0.00    +0.085 A 
ATOM     14  N   UNL     1      -2.131   2.145   1.992  0.00  0.00    -0.214 NA
ATOM     15  C   UNL     1      -1.585   3.273   2.518  0.00  0.00    +0.213 A 
ATOM     16  N   UNL     1      -2.146   3.854   3.693  0.00  0.00    -0.327 N 
ATOM     17  N   UNL     1      -0.510   3.851   1.916  0.00  0.00    -0.223 NA
ATOM     18  C   UNL     1       0.026   3.324   0.786  0.00  0.00    +0.116 A 
ATOM     19  C   UNL     1      -0.526   2.172   0.228  0.00  0.00    +0.049 A 
ATOM     20  H   UNL     1      -3.009   3.448   4.124  0.00  0.00    +0.145 HD
ATOM     21  H   UNL     1      -1.741   4.731   4.091  0.00  0.00    +0.145 HD
ENDBRANCH  11  13
BRANCH   8  23
ATOM     22  C   UNL     1      -5.514  -1.581  -2.275  0.00  0.00    +0.017 C 
ATOM     23  C   UNL     1      -4.973  -2.213  -0.983  0.00  0.00    +0.011 C 
ATOM     24  C   UNL     1      -6.089  -2.244   0.082  0.00  0.00    +0.017 C 
ATOM     25  C   UNL     1      -4.528  -3.663  -1.277  0.00  0.00    +0.017 C 
ENDBRANCH   8  23
ENDBRANCH   1  10
BRANCH   4  26
ATOM     26  N   UNL     1       2.949  -0.758   1.622  0.00  0.00    -0.213 N 
ATOM     27  H   UNL     1       2.533  -0.551   2.558  0.00  0.00    +0.174 HD
BRANCH  26  28
ATOM     28  S   UNL     1       4.686  -0.788   1.538  0.00  0.00    +0.078 S 
ATOM     29  O   UNL     1       5.253  -0.551   2.911  0.00  0.00    -0.150 OA
ATOM     30  O   UNL     1       5.130  -2.145   1.065  0.00  0.00    -0.150 OA
BRANCH  28  31
ATOM     31  C   UNL     1       5.256   0.502   0.470  0.00  0.00    +0.178 A 
ATOM     32  C   UNL     1       4.800   1.820   0.672  0.00  0.00    +0.153 A 
ATOM     33  F   UNL     1       3.922   2.107   1.670  0.00  0.00    -0.203 F 
ATOM     34  C   UNL     1       5.255   2.857  -0.149  0.00  0.00    +0.040 A 
ATOM     35  C   UNL     1       6.162   2.590  -1.179  0.00  0.00    +0.006 A 
ATOM     36  C   UNL     1       6.618   1.278  -1.391  0.00  0.00    +0.040 A 
ATOM     37  C   UNL     1       6.174   0.234  -0.569  0.00  0.00    +0.153 A 
ATOM     38  F   UNL     1       6.645  -1.020  -0.789  0.00  0.00    -0.203 F 
ENDBRANCH  28  31
ENDBRANCH  26  28
ENDBRANCH   4  26
TORSDOF 6
