REMARK  Name = 
REMARK  5 active torsions:
REMARK  status: ('A' for Active; 'I' for Inactive)
REMARK    1  A    between atoms: C_1  and  N_2
REMARK    2  A    between atoms: N_2  and  C_3
REMARK    3  A    between atoms: N_2  and  N_4
REMARK    4  A    between atoms: N_5  and  C_6
REMARK    5  A    between atoms: C_7  and  C_11
REMARK                            x       y       z     vdW  Elec       q    Type
REMARK                         _______ _______ _______ _____ _____    ______ ____
ROOT
ATOM      1  C   UNL     1       1.039   0.628  -1.021  0.00  0.00    +0.186 A 
ATOM      2  C   UNL     1       2.069   0.295  -0.148  0.00  0.00    +0.171 A 
ATOM      3  N   UNL     1       3.201   0.896  -0.573  0.00  0.00    -0.229 NA
ATOM      4  C   UNL     1       2.837   1.568  -1.686  0.00  0.00    +0.199 A 
ATOM      5  N   UNL     1       1.534   1.418  -1.984  0.00  0.00    -0.328 N 
ATOM      6  H   UNL     1       1.013   1.854  -2.778  0.00  0.00    +0.168 HD
ENDROOT
BRANCH   2   7
ATOM      7  C   UNL     1       2.047  -0.616   1.014  0.00  0.00    +0.264 C 
ATOM      8  N   UNL     1       3.061  -0.524   2.015  0.00  0.00    -0.324 N 
ATOM      9  O   UNL     1       1.170  -1.514   1.109  0.00  0.00    -0.269 OA
ATOM     10  H   UNL     1       3.802   0.210   1.966  0.00  0.00    +0.145 HD
ATOM     11  H   UNL     1       3.063  -1.186   2.823  0.00  0.00    +0.145 HD
ENDBRANCH   2   7
BRANCH   1  13
ATOM     12  N   UNL     1      -0.888  -0.120   0.143  0.00  0.00    -0.078 NA
ATOM     13  N   UNL     1      -0.355   0.312  -0.927  0.00  0.00    -0.113 NA
BRANCH  12  15
ATOM     14  C   UNL     1      -3.127  -0.253  -0.955  0.00  0.00    +0.153 C 
ATOM     15  N   UNL     1      -2.258  -0.425   0.210  0.00  0.00    -0.243 N 
ATOM     16  C   UNL     1      -2.811  -0.924   1.465  0.00  0.00    +0.153 C 
ENDBRANCH  12  15
ENDBRANCH   1  13
TORSDOF 3
