REMARK  Name = 
REMARK  25 active torsions:
REMARK  status: ('A' for Active; 'I' for Inactive)
REMARK    1  A    between atoms: C_8  and  C_88
REMARK    2  A    between atoms: C_12  and  N_13
REMARK    3  A    between atoms: C_14  and  C_16
REMARK    4  A    between atoms: C_23  and  C_24
REMARK    5  A    between atoms: C_27  and  C_28
REMARK    6  A    between atoms: C_31  and  N_32
REMARK    7  A    between atoms: C_33  and  C_34
REMARK    8  A    between atoms: N_36  and  C_37
REMARK    9  A    between atoms: C_38  and  C_39
REMARK   10  A    between atoms: C_43  and  C_44
REMARK   11  A    between atoms: C_44  and  C_45
REMARK   12  A    between atoms: C_44  and  C_46
REMARK   13  A    between atoms: N_47  and  C_48
REMARK   14  A    between atoms: N_52  and  C_53
REMARK   15  A    between atoms: C_63  and  C_67
REMARK   16  A    between atoms: C_67  and  C_68
REMARK   17  A    between atoms: C_67  and  C_69
REMARK   18  A    between atoms: C_70  and  C_71
REMARK   19  A    between atoms: C_75  and  C_76
REMARK   20  A    between atoms: C_76  and  C_77
REMARK   21  A    between atoms: C_76  and  C_78
REMARK   22  A    between atoms: N_79  and  C_80
REMARK   23  A    between atoms: N_84  and  C_85
REMARK   24  A    between atoms: C_88  and  C_89
REMARK   25  A    between atoms: C_88  and  C_90
REMARK                            x       y       z     vdW  Elec       q    Type
REMARK                         _______ _______ _______ _____ _____    ______ ____
ROOT
ATOM      1  C   UNL     1      -1.071   1.349   0.872  0.00  0.00    +0.066 A 
ATOM      2  C   UNL     1      -0.364   0.170   1.167  0.00  0.00    +0.119 A 
ATOM      3  N   UNL     1       0.089  -0.655   0.200  0.00  0.00    -0.239 NA
ATOM      4  C   UNL     1       0.675  -1.826   0.501  0.00  0.00    +0.121 A 
ATOM      5  C   UNL     1       0.784  -2.242   1.916  0.00  0.00    +0.161 A 
ATOM      6  O   UNL     1       0.391  -1.374   2.831  0.00  0.00    -0.451 OA
ATOM      7  C   UNL     1      -0.136  -0.195   2.546  0.00  0.00    +0.157 A 
ATOM      8  C   UNL     1      -0.485   0.734   3.554  0.00  0.00    -0.006 A 
ATOM      9  C   UNL     1      -0.202   0.386   4.984  0.00  0.00    +0.047 C 
ATOM     10  C   UNL     1      -1.109   1.946   3.209  0.00  0.00    +0.008 A 
ATOM     11  C   UNL     1      -1.418   2.243   1.882  0.00  0.00    +0.015 A 
ATOM     12  C   UNL     1       1.290  -3.490   2.223  0.00  0.00    +0.042 A 
ATOM     13  C   UNL     1       1.426  -3.931   3.658  0.00  0.00    +0.052 C 
ATOM     14  C   UNL     1       1.690  -4.361   1.175  0.00  0.00    +0.207 A 
ATOM     15  O   UNL     1       2.160  -5.493   1.437  0.00  0.00    -0.286 OA
ATOM     16  C   UNL     1       1.624  -3.937  -0.169  0.00  0.00    +0.087 A 
ATOM     17  C   UNL     1       1.234  -2.627  -0.482  0.00  0.00    +0.090 A 
ENDROOT
BRANCH   1  19
ATOM     18  N   UNL     1      -2.946   1.902  -0.754  0.00  0.00    -0.297 N 
ATOM     19  C   UNL     1      -1.574   1.588  -0.525  0.00  0.00    +0.247 C 
ATOM     20  O   UNL     1      -0.851   1.294  -1.504  0.00  0.00    -0.270 OA
ATOM     21  H   UNL     1      -3.364   2.735  -0.298  0.00  0.00    +0.150 HD
BRANCH  18  33
ATOM     22  C   UNL     1     -10.061  -0.512  -1.843  0.00  0.00    +0.162 C 
ATOM     23  C   UNL     1     -10.526  -1.531  -2.903  0.00  0.00    +0.033 C 
ATOM     24  C   UNL     1      -9.252  -1.966  -3.620  0.00  0.00    +0.021 C 
ATOM     25  C   UNL     1      -8.200  -0.903  -3.310  0.00  0.00    +0.109 C 
ATOM     26  N   UNL     1      -8.847   0.075  -2.420  0.00  0.00    -0.288 N 
ATOM     27  C   UNL     1      -8.754   1.482  -2.709  0.00  0.00    +0.237 C 
ATOM     28  O   UNL     1      -9.798   2.069  -3.116  0.00  0.00    -0.274 OA
ATOM     29  C   UNL     1      -7.482   2.336  -2.518  0.00  0.00    +0.162 C 
ATOM     30  N   UNL     1      -6.322   1.549  -2.063  0.00  0.00    -0.302 N 
ATOM     31  C   UNL     1      -4.938   1.907  -2.247  0.00  0.00    +0.238 C 
ATOM     32  O   UNL     1      -4.650   2.719  -3.174  0.00  0.00    -0.274 OA
ATOM     33  C   UNL     1      -3.798   1.072  -1.643  0.00  0.00    +0.200 C 
ATOM     34  C   UNL     1      -4.267  -0.247  -0.910  0.00  0.00    +0.203 C 
ATOM     35  C   UNL     1      -3.124  -1.242  -0.756  0.00  0.00    +0.054 C 
ATOM     36  O   UNL     1      -4.771   0.027   0.418  0.00  0.00    -0.458 OA
ATOM     37  C   UNL     1      -6.134   0.036   0.787  0.00  0.00    +0.328 C 
ATOM     38  O   UNL     1      -7.016  -0.228  -0.066  0.00  0.00    -0.249 OA
ATOM     39  C   UNL     1      -6.590   0.244   2.208  0.00  0.00    +0.187 C 
ATOM     40  N   UNL     1      -7.517  -0.860   2.572  0.00  0.00    -0.290 N 
ATOM     41  C   UNL     1      -7.101  -2.258   2.344  0.00  0.00    +0.133 C 
ATOM     42  C   UNL     1      -8.919  -0.568   2.696  0.00  0.00    +0.233 C 
ATOM     43  O   UNL     1      -9.271   0.363   3.479  0.00  0.00    -0.274 OA
ATOM     44  C   UNL     1      -9.976  -1.383   2.025  0.00  0.00    +0.203 C 
ATOM     45  N   UNL     1     -10.373  -0.784   0.743  0.00  0.00    -0.294 N 
ATOM     46  C   UNL     1     -11.606   0.034   0.686  0.00  0.00    +0.132 C 
ATOM     47  C   UNL     1      -9.773  -1.193  -0.513  0.00  0.00    +0.236 C 
ATOM     48  O   UNL     1      -9.015  -2.203  -0.524  0.00  0.00    -0.274 OA
ATOM     49  H   UNL     1      -6.470   0.533  -2.108  0.00  0.00    +0.150 HD
BRANCH  39  50
ATOM     50  C   UNL     1      -5.460   0.489   3.260  0.00  0.00    +0.014 C 
ATOM     51  C   UNL     1      -4.698   1.806   3.003  0.00  0.00    +0.009 C 
ATOM     52  C   UNL     1      -4.463  -0.669   3.469  0.00  0.00    +0.009 C 
ENDBRANCH  39  50
BRANCH  29  53
ATOM     53  C   UNL     1      -7.787   3.502  -1.537  0.00  0.00    +0.012 C 
ATOM     54  C   UNL     1      -6.760   4.653  -1.644  0.00  0.00    +0.009 C 
ATOM     55  C   UNL     1      -7.920   3.038  -0.072  0.00  0.00    +0.009 C 
ENDBRANCH  29  53
ENDBRANCH  18  33
ENDBRANCH   1  19
BRANCH  17  56
ATOM     56  C   UNL     1       1.640  -2.013  -1.766  0.00  0.00    +0.249 C 
ATOM     57  O   UNL     1       1.349  -2.565  -2.880  0.00  0.00    -0.270 OA
ATOM     58  N   UNL     1       2.440  -0.818  -1.735  0.00  0.00    -0.297 N 
ATOM     59  H   UNL     1       2.508  -0.299  -0.829  0.00  0.00    +0.150 HD
BRANCH  58  60
ATOM     60  C   UNL     1       3.458  -0.532  -2.751  0.00  0.00    +0.200 C 
ATOM     61  C   UNL     1       3.620   0.999  -3.026  0.00  0.00    +0.203 C 
ATOM     62  C   UNL     1       2.382   1.821  -2.657  0.00  0.00    +0.054 C 
ATOM     63  O   UNL     1       4.789   1.536  -2.402  0.00  0.00    -0.458 OA
ATOM     64  C   UNL     1       5.453   2.692  -2.865  0.00  0.00    +0.328 C 
ATOM     65  O   UNL     1       4.904   3.431  -3.731  0.00  0.00    -0.249 OA
ATOM     66  C   UNL     1       6.876   3.021  -2.429  0.00  0.00    +0.187 C 
ATOM     67  N   UNL     1       7.098   3.081  -0.951  0.00  0.00    -0.290 N 
ATOM     68  C   UNL     1       6.054   2.617  -0.008  0.00  0.00    +0.133 C 
ATOM     69  C   UNL     1       8.281   3.728  -0.386  0.00  0.00    +0.233 C 
ATOM     70  O   UNL     1       8.911   4.547  -1.096  0.00  0.00    -0.274 OA
ATOM     71  C   UNL     1       8.807   3.442   1.002  0.00  0.00    +0.203 C 
ATOM     72  N   UNL     1       9.249   2.028   1.165  0.00  0.00    -0.294 N 
ATOM     73  C   UNL     1      10.318   1.551   0.282  0.00  0.00    +0.132 C 
ATOM     74  C   UNL     1       8.760   1.212   2.258  0.00  0.00    +0.236 C 
ATOM     75  O   UNL     1       8.030   1.738   3.161  0.00  0.00    -0.274 OA
ATOM     76  C   UNL     1       8.891  -0.314   2.328  0.00  0.00    +0.162 C 
ATOM     77  C   UNL     1      10.326  -0.831   2.527  0.00  0.00    +0.033 C 
ATOM     78  C   UNL     1      10.657  -1.651   1.259  0.00  0.00    +0.021 C 
ATOM     79  C   UNL     1       9.351  -1.870   0.510  0.00  0.00    +0.109 C 
ATOM     80  N   UNL     1       8.370  -0.977   1.123  0.00  0.00    -0.288 N 
ATOM     81  C   UNL     1       6.970  -0.922   0.741  0.00  0.00    +0.237 C 
ATOM     82  O   UNL     1       6.196  -0.245   1.483  0.00  0.00    -0.274 OA
ATOM     83  C   UNL     1       6.389  -1.724  -0.391  0.00  0.00    +0.162 C 
ATOM     84  N   UNL     1       5.263  -0.993  -1.020  0.00  0.00    -0.302 N 
ATOM     85  C   UNL     1       4.744  -1.207  -2.337  0.00  0.00    +0.238 C 
ATOM     86  O   UNL     1       5.293  -2.056  -3.093  0.00  0.00    -0.274 OA
ATOM     87  H   UNL     1       4.769  -0.284  -0.452  0.00  0.00    +0.150 HD
BRANCH  66  88
ATOM     88  C   UNL     1       7.855   2.036  -3.158  0.00  0.00    +0.014 C 
ATOM     89  C   UNL     1       7.927   0.649  -2.522  0.00  0.00    +0.009 C 
ATOM     90  C   UNL     1       9.249   2.613  -3.394  0.00  0.00    +0.009 C 
ENDBRANCH  66  88
BRANCH  83  91
ATOM     91  C   UNL     1       5.932  -3.085   0.203  0.00  0.00    +0.012 C 
ATOM     92  C   UNL     1       5.744  -4.153  -0.883  0.00  0.00    +0.009 C 
ATOM     93  C   UNL     1       4.660  -2.945   1.048  0.00  0.00    +0.009 C 
ENDBRANCH  83  91
ENDBRANCH  58  60
ENDBRANCH  17  56
BRANCH  16  94
ATOM     94  N   UNL     1       2.205  -4.741  -1.234  0.00  0.00    -0.354 N 
ATOM     95  H   UNL     1       2.556  -5.732  -1.038  0.00  0.00    +0.142 HD
ATOM     96  H   UNL     1       2.410  -5.810  -1.150  0.00  0.00    +0.142 HD
ENDBRANCH  16  94
TORSDOF 9
