REMARK  Name = 
REMARK  14 active torsions:
REMARK  status: ('A' for Active; 'I' for Inactive)
REMARK    1  A    between atoms: C_1  and  C_2
REMARK    2  A    between atoms: C_2  and  N_3
REMARK    3  A    between atoms: N_3  and  C_4
REMARK    4  A    between atoms: N_3  and  C_6
REMARK    5  A    between atoms: C_4  and  C_5
REMARK    6  A    between atoms: C_6  and  C_7
REMARK    7  A    between atoms: C_7  and  S_8
REMARK    8  A    between atoms: S_8  and  C_11
REMARK    9  A    between atoms: C_26  and  O_27
REMARK   10  A    between atoms: C_29  and  C_30
REMARK   11  A    between atoms: C_39  and  C_40
REMARK   12  A    between atoms: C_41  and  C_42
REMARK   13  A    between atoms: C_42  and  C_43
REMARK   14  A    between atoms: C_42  and  C_44
REMARK                            x       y       z     vdW  Elec       q    Type
REMARK                         _______ _______ _______ _____ _____    ______ ____
ROOT
ATOM      1  C   UNL     1      -2.014   0.217   0.654  0.00  0.00    +0.163 C 
ATOM      2  C   UNL     1      -1.809   1.601   1.272  0.00  0.00    +0.047 C 
ATOM      3  C   UNL     1      -0.599   2.201   0.571  0.00  0.00    +0.111 C 
ATOM      4  N   UNL     1      -0.383   1.407  -0.634  0.00  0.00    -0.281 N 
ATOM      5  C   UNL     1       0.294   1.929  -1.801  0.00  0.00    +0.269 C 
ATOM      6  O   UNL     1       0.038   1.448  -2.934  0.00  0.00    -0.268 OA
ATOM      7  C   UNL     1       1.263   3.042  -1.720  0.00  0.00    +0.164 A 
ATOM      8  C   UNL     1       1.936   3.590  -2.797  0.00  0.00    +0.230 A 
ATOM      9  O   UNL     1       2.677   4.569  -2.341  0.00  0.00    -0.447 OA
ATOM     10  C   UNL     1       2.487   4.627  -1.040  0.00  0.00    +0.203 A 
ATOM     11  N   UNL     1       1.605   3.701  -0.595  0.00  0.00    -0.208 NA
ATOM     12  C   UNL     1       3.150   5.645  -0.159  0.00  0.00    +0.170 C 
ATOM     13  C   UNL     1       3.587   5.077   1.172  0.00  0.00    +0.145 C 
ATOM     14  O   UNL     1       3.351   5.714   2.190  0.00  0.00    -0.297 OA
ATOM     15  C   UNL     1       4.296   3.745   1.293  0.00  0.00    +0.110 C 
ATOM     16  C   UNL     1       5.637   3.700   0.527  0.00  0.00    +0.145 C 
ATOM     17  C   UNL     1       6.379   2.424   0.859  0.00  0.00    +0.007 C 
ATOM     18  C   UNL     1       6.084   1.184   0.401  0.00  0.00    -0.052 C 
ATOM     19  C   UNL     1       6.807   0.028   1.047  0.00  0.00    +0.043 C 
ATOM     20  C   UNL     1       5.030   0.959  -0.643  0.00  0.00    +0.000 C 
ATOM     21  C   UNL     1       4.979  -0.012  -1.575  0.00  0.00    -0.008 C 
ATOM     22  C   UNL     1       5.920  -1.179  -1.746  0.00  0.00    +0.132 C 
ATOM     23  N   UNL     1       5.505  -2.285  -0.884  0.00  0.00    -0.308 N 
ATOM     24  C   UNL     1       4.174  -2.805  -0.941  0.00  0.00    +0.237 C 
ATOM     25  O   UNL     1       3.708  -3.179  -2.054  0.00  0.00    -0.271 OA
ATOM     26  C   UNL     1       3.353  -2.799   0.293  0.00  0.00    +0.063 C 
ATOM     27  C   UNL     1       2.058  -3.147   0.419  0.00  0.00    -0.015 C 
ATOM     28  C   UNL     1       1.190  -3.747  -0.669  0.00  0.00    +0.050 C 
ATOM     29  C   UNL     1       1.552  -5.222  -0.898  0.00  0.00    +0.015 C 
ATOM     30  C   UNL     1      -0.345  -3.492  -0.465  0.00  0.00    +0.186 C 
ATOM     31  O   UNL     1      -0.583  -2.131  -0.087  0.00  0.00    -0.459 OA
ATOM     32  C   UNL     1      -0.482  -1.037  -0.960  0.00  0.00    +0.330 C 
ATOM     33  O   UNL     1       0.182  -1.142  -2.025  0.00  0.00    -0.249 OA
ATOM     34  C   UNL     1      -1.256   0.236  -0.691  0.00  0.00    +0.209 C 
ATOM     35  H   UNL     1       6.167  -2.652  -0.164  0.00  0.00    +0.149 HD
ENDROOT
BRANCH   1  36
ATOM     36  S   UNL     1      -3.757  -0.192   0.453  0.00  0.00    -0.025 S 
ATOM     37  O   UNL     1      -4.385  -0.307   1.815  0.00  0.00    -0.174 OA
ATOM     38  O   UNL     1      -3.856  -1.521  -0.250  0.00  0.00    -0.174 OA
BRANCH  36  39
ATOM     39  C   UNL     1      -4.627   1.071  -0.485  0.00  0.00    +0.181 C 
BRANCH  39  40
ATOM     40  C   UNL     1      -5.974   0.588  -1.029  0.00  0.00    +0.107 C 
BRANCH  40  41
ATOM     41  N   UNL     1      -6.976   0.506   0.070  0.00  0.00    -0.301 NA
BRANCH  41  43
ATOM     42  C   UNL     1      -7.755   2.861   0.133  0.00  0.00    +0.020 C 
ATOM     43  C   UNL     1      -8.126   1.411  -0.175  0.00  0.00    +0.081 C 
ENDBRANCH  41  43
BRANCH  41  44
ATOM     44  C   UNL     1      -7.430  -0.887   0.279  0.00  0.00    +0.081 C 
ATOM     45  C   UNL     1      -7.923  -1.100   1.712  0.00  0.00    +0.020 C 
ENDBRANCH  41  44
ENDBRANCH  40  41
ENDBRANCH  39  40
ENDBRANCH  36  39
ENDBRANCH   1  36
BRANCH  30  46
ATOM     46  C   UNL     1      -1.152  -4.402   0.522  0.00  0.00    +0.024 C 
ATOM     47  C   UNL     1      -0.570  -4.469   1.940  0.00  0.00    +0.011 C 
ATOM     48  C   UNL     1      -1.456  -5.811  -0.025  0.00  0.00    +0.011 C 
ENDBRANCH  30  46
BRANCH  16  49
ATOM     49  O   UNL     1       5.441   3.823  -0.859  0.00  0.00    -0.387 OA
ATOM     50  H   UNL     1       6.331   4.018  -1.260  0.00  0.00    +0.210 HD
ENDBRANCH  16  49
TORSDOF 8
