REMARK  Name = 
REMARK  4 active torsions:
REMARK  status: ('A' for Active; 'I' for Inactive)
REMARK    1  A    between atoms: C_4  and  O_5
REMARK    2  A    between atoms: C_4  and  C_6
REMARK    3  A    between atoms: C_8  and  C_9
REMARK    4  A    between atoms: C_21  and  C_22
REMARK                            x       y       z     vdW  Elec       q    Type
REMARK                         _______ _______ _______ _____ _____    ______ ____
ROOT
ATOM      1  C   UNL     1       1.834   0.528  -0.187  0.00  0.00    +0.002 C 
ATOM      2  C   UNL     1       2.965   1.205  -0.953  0.00  0.00    +0.008 C 
ATOM      3  C   UNL     1       4.247   0.514  -0.447  0.00  0.00    +0.049 C 
ATOM      4  C   UNL     1       3.802  -0.670   0.459  0.00  0.00    +0.132 C 
ATOM      5  C   UNL     1       2.320  -0.913   0.032  0.00  0.00    +0.011 C 
ATOM      6  C   UNL     1       2.308  -1.771  -1.279  0.00  0.00    +0.015 C 
ATOM      7  C   UNL     1       1.392  -1.574   1.084  0.00  0.00    +0.011 C 
ATOM      8  C   UNL     1      -0.086  -1.540   0.630  0.00  0.00    +0.005 C 
ATOM      9  C   UNL     1      -0.574  -0.108   0.237  0.00  0.00    +0.003 C 
ATOM     10  C   UNL     1       0.400   0.604  -0.760  0.00  0.00    -0.003 C 
ATOM     11  C   UNL     1      -0.029   2.071  -0.942  0.00  0.00    +0.008 C 
ATOM     12  C   UNL     1      -1.441   2.163  -1.514  0.00  0.00    +0.032 C 
ATOM     13  C   UNL     1      -2.428   1.389  -0.674  0.00  0.00    -0.059 C 
ATOM     14  C   UNL     1      -3.684   1.873  -0.563  0.00  0.00    +0.049 C 
ATOM     15  C   UNL     1      -4.692   1.092   0.142  0.00  0.00    +0.163 A 
ATOM     16  C   UNL     1      -4.394  -0.063   0.782  0.00  0.00    +0.019 A 
ATOM     17  C   UNL     1      -2.996  -0.551   0.948  0.00  0.00    +0.051 C 
ATOM     18  C   UNL     1      -2.078  -0.060  -0.236  0.00  0.00    -0.003 C 
ATOM     19  C   UNL     1      -2.328  -0.980  -1.458  0.00  0.00    +0.016 C 
ATOM     20  C   UNL     1      -5.577  -0.460   1.363  0.00  0.00    +0.160 A 
ATOM     21  N   UNL     1      -6.533   0.435   1.027  0.00  0.00    -0.086 NA
ATOM     22  O   UNL     1      -5.966   1.355   0.293  0.00  0.00    -0.355 OA
ENDROOT
BRANCH   4  23
ATOM     23  O   UNL     1       4.593  -1.813   0.232  0.00  0.00    -0.376 OA
ATOM     24  H   UNL     1       5.543  -1.557   0.378  0.00  0.00    +0.211 HD
ENDBRANCH   4  23
BRANCH   4  25
ATOM     25  C   UNL     1       3.924  -0.280   1.886  0.00  0.00    -0.070 C 
ATOM     26  C   UNL     1       4.027   0.039   3.044  0.00  0.00    +0.007 C 
ENDBRANCH   4  25
TORSDOF 2
