REMARK  Name = 
REMARK  4 active torsions:
REMARK  status: ('A' for Active; 'I' for Inactive)
REMARK    1  A    between atoms: N_2  and  C_4
REMARK    2  A    between atoms: C_7  and  C_10
REMARK    3  A    between atoms: C_13  and  C_15
REMARK    4  A    between atoms: N_16  and  N_17
REMARK                            x       y       z     vdW  Elec       q    Type
REMARK                         _______ _______ _______ _____ _____    ______ ____
ROOT
ATOM      1  C   UNL     1      -1.406  -0.577   0.123  0.00  0.00    +0.136 A 
ATOM      2  C   UNL     1      -0.930  -1.832   0.476  0.00  0.00    +0.050 A 
ATOM      3  C   UNL     1       0.445  -1.746   0.421  0.00  0.00    +0.051 A 
ATOM      4  C   UNL     1       0.724  -0.449   0.038  0.00  0.00    +0.148 A 
ATOM      5  O   UNL     1      -0.392   0.221  -0.131  0.00  0.00    -0.454 OA
ENDROOT
BRANCH   1   9
ATOM      6  C   UNL     1      -5.510   0.707  -0.156  0.00  0.00    +0.126 A 
ATOM      7  C   UNL     1      -4.456   1.592  -0.436  0.00  0.00    +0.033 A 
ATOM      8  C   UNL     1      -3.127   1.167  -0.343  0.00  0.00    +0.014 A 
ATOM      9  C   UNL     1      -2.822  -0.152   0.032  0.00  0.00    +0.017 A 
ATOM     10  C   UNL     1      -3.877  -1.039   0.312  0.00  0.00    +0.014 A 
ATOM     11  C   UNL     1      -5.206  -0.614   0.219  0.00  0.00    +0.033 A 
BRANCH   6  13
ATOM     12  O   UNL     1      -7.170   2.441  -0.621  0.00  0.00    -0.126 OA
ATOM     13  N   UNL     1      -6.877   1.147  -0.253  0.00  0.00    +0.056 N 
ATOM     14  O   UNL     1      -7.817   0.365  -0.005  0.00  0.00    -0.126 OA
ENDBRANCH   6  13
ENDBRANCH   1   9
BRANCH   4  15
ATOM     15  C   UNL     1       2.056   0.132  -0.160  0.00  0.00    +0.176 C 
ATOM     16  N   UNL     1       3.120  -0.592   0.002  0.00  0.00    -0.180 NA
BRANCH  16  17
ATOM     17  N   UNL     1       4.428  -0.098  -0.156  0.00  0.00    -0.168 N 
ATOM     18  C   UNL     1       5.590  -0.970  -0.296  0.00  0.00    +0.232 C 
ATOM     19  C   UNL     1       6.734  -0.027  -0.086  0.00  0.00    +0.240 C 
ATOM     20  O   UNL     1       7.947  -0.358  -0.143  0.00  0.00    -0.274 OA
ATOM     21  N   UNL     1       6.305   1.296   0.203  0.00  0.00    -0.237 N 
ATOM     22  C   UNL     1       4.894   1.209   0.184  0.00  0.00    +0.328 C 
ATOM     23  O   UNL     1       4.145   2.171   0.498  0.00  0.00    -0.250 OA
ATOM     24  H   UNL     1       6.895   2.123   0.445  0.00  0.00    +0.159 HD
ENDBRANCH  16  17
ENDBRANCH   4  15
TORSDOF 4
