REMARK  Name = 
REMARK  5 active torsions:
REMARK  status: ('A' for Active; 'I' for Inactive)
REMARK    1  A    between atoms: C_1  and  C_2
REMARK    2  A    between atoms: C_7  and  N_8
REMARK    3  A    between atoms: N_11  and  C_12
REMARK    4  A    between atoms: C_12  and  C_13
REMARK    5  A    between atoms: C_13  and  C_14
REMARK                            x       y       z     vdW  Elec       q    Type
REMARK                         _______ _______ _______ _____ _____    ______ ____
ROOT
ATOM      1  N   UNL     1      -2.895   0.356  -0.375  0.00  0.00    -0.327 N 
ATOM      2  C   UNL     1      -2.381   1.652  -0.831  0.00  0.00    +0.120 C 
ATOM      3  C   UNL     1      -0.954   1.920  -0.301  0.00  0.00    +0.103 C 
ATOM      4  N   UNL     1      -0.292   0.707   0.234  0.00  0.00    -0.299 NA
ATOM      5  C   UNL     1      -0.585  -0.463  -0.613  0.00  0.00    +0.103 C 
ATOM      6  C   UNL     1      -2.053  -0.844  -0.425  0.00  0.00    +0.120 C 
ENDROOT
BRANCH   1  13
ATOM      7  C   UNL     1      -5.009  -0.643  -2.166  0.00  0.00    +0.045 C 
ATOM      8  C   UNL     1      -5.282  -0.214  -0.750  0.00  0.00    -0.029 A 
ATOM      9  C   UNL     1      -6.585  -0.329  -0.237  0.00  0.00    +0.005 A 
ATOM     10  C   UNL     1      -6.863   0.045   1.080  0.00  0.00    +0.000 A 
ATOM     11  C   UNL     1      -5.843   0.529   1.901  0.00  0.00    +0.002 A 
ATOM     12  C   UNL     1      -4.540   0.632   1.410  0.00  0.00    +0.023 A 
ATOM     13  C   UNL     1      -4.247   0.252   0.092  0.00  0.00    +0.033 A 
ENDBRANCH   1  13
BRANCH   4  14
ATOM     14  C   UNL     1       1.164   0.923   0.376  0.00  0.00    +0.092 C 
BRANCH  14  15
ATOM     15  C   UNL     1       1.714   0.088   1.537  0.00  0.00    +0.091 C 
BRANCH  15  16
ATOM     16  C   UNL     1       3.184   0.329   1.710  0.00  0.00    +0.135 A 
ATOM     17  N   UNL     1       3.695   1.278   2.522  0.00  0.00    -0.134 NA
ATOM     18  N   UNL     1       5.011   1.273   2.352  0.00  0.00    -0.134 NA
ATOM     19  C   UNL     1       5.275   0.336   1.422  0.00  0.00    +0.133 A 
ATOM     20  C   UNL     1       6.641  -0.041   0.939  0.00  0.00    +0.076 C 
ATOM     21  C   UNL     1       6.542  -0.807  -0.392  0.00  0.00    +0.009 C 
ATOM     22  C   UNL     1       5.450  -1.890  -0.340  0.00  0.00    +0.022 C 
ATOM     23  C   UNL     1       4.069  -1.270  -0.067  0.00  0.00    +0.125 C 
ATOM     24  N   UNL     1       4.158  -0.288   1.015  0.00  0.00    -0.315 N 
ENDBRANCH  15  16
ENDBRANCH  14  15
ENDBRANCH   4  14
TORSDOF 4
