REMARK  Name = 
REMARK  4 active torsions:
REMARK  status: ('A' for Active; 'I' for Inactive)
REMARK    1  A    between atoms: N_1  and  C_2
REMARK    2  A    between atoms: C_5  and  S_8
REMARK    3  A    between atoms: S_8  and  C_11
REMARK    4  A    between atoms: C_14  and  N_15
REMARK                            x       y       z     vdW  Elec       q    Type
REMARK                         _______ _______ _______ _____ _____    ______ ____
ROOT
ATOM      1  S   UNL     1       0.060  -1.843   0.707  0.00  0.00    +0.025 S 
ATOM      2  O   UNL     1       0.239  -3.118  -0.070  0.00  0.00    -0.164 OA
ATOM      3  O   UNL     1      -0.064  -2.199   2.163  0.00  0.00    -0.164 OA
ENDROOT
BRANCH   1   7
ATOM      4  C   UNL     1      -3.683   0.359  -0.708  0.00  0.00    +0.025 A 
ATOM      5  C   UNL     1      -3.256   0.475   0.623  0.00  0.00    +0.024 A 
ATOM      6  C   UNL     1      -2.114  -0.204   1.057  0.00  0.00    +0.029 A 
ATOM      7  C   UNL     1      -1.391  -1.010   0.167  0.00  0.00    +0.094 A 
ATOM      8  C   UNL     1      -1.812  -1.119  -1.166  0.00  0.00    +0.029 A 
ATOM      9  C   UNL     1      -2.954  -0.440  -1.601  0.00  0.00    +0.024 A 
BRANCH   4  10
ATOM     10  N   UNL     1      -4.851   1.054  -1.153  0.00  0.00    -0.358 N 
ATOM     11  H   UNL     1      -5.399   1.653  -0.496  0.00  0.00    +0.142 HD
ATOM     12  H   UNL     1      -5.175   0.975  -2.142  0.00  0.00    +0.142 HD
ENDBRANCH   4  10
ENDBRANCH   1   7
BRANCH   1  13
ATOM     13  C   UNL     1       1.450  -0.793   0.463  0.00  0.00    +0.094 A 
ATOM     14  C   UNL     1       2.147  -0.817  -0.752  0.00  0.00    +0.029 A 
ATOM     15  C   UNL     1       3.239   0.032  -0.954  0.00  0.00    +0.024 A 
ATOM     16  C   UNL     1       3.641   0.918   0.057  0.00  0.00    +0.025 A 
ATOM     17  C   UNL     1       2.937   0.948   1.269  0.00  0.00    +0.024 A 
ATOM     18  C   UNL     1       1.845   0.098   1.470  0.00  0.00    +0.029 A 
BRANCH  16  19
ATOM     19  N   UNL     1       4.757   1.787  -0.150  0.00  0.00    -0.358 N 
ATOM     20  H   UNL     1       5.287   1.773  -1.050  0.00  0.00    +0.142 HD
ATOM     21  H   UNL     1       5.063   2.451   0.596  0.00  0.00    +0.142 HD
ENDBRANCH  16  19
ENDBRANCH   1  13
TORSDOF 4
