REMARK  Name = 
REMARK  7 active torsions:
REMARK  status: ('A' for Active; 'I' for Inactive)
REMARK    1  A    between atoms: C_2  and  C_4
REMARK    2  A    between atoms: C_4  and  C_5
REMARK    3  A    between atoms: C_4  and  C_21
REMARK    4  A    between atoms: C_4  and  C_27
REMARK    5  A    between atoms: N_8  and  C_9
REMARK    6  A    between atoms: C_9  and  C_10
REMARK    7  A    between atoms: C_10  and  C_11
REMARK                            x       y       z     vdW  Elec       q    Type
REMARK                         _______ _______ _______ _____ _____    ______ ____
ROOT
ATOM      1  C   UNL     1      -2.860   0.212   0.421  0.00  0.00    +0.100 C 
ENDROOT
BRANCH   1   2
ATOM      2  C   UNL     1      -3.091   1.016  -0.882  0.00  0.00    -0.028 A 
ATOM      3  C   UNL     1      -2.315   2.161  -1.194  0.00  0.00    +0.005 A 
ATOM      4  C   UNL     1      -2.484   2.838  -2.404  0.00  0.00    +0.000 A 
ATOM      5  C   UNL     1      -3.401   2.372  -3.345  0.00  0.00    +0.000 A 
ATOM      6  C   UNL     1      -4.139   1.218  -3.085  0.00  0.00    +0.000 A 
ATOM      7  C   UNL     1      -3.978   0.536  -1.877  0.00  0.00    +0.005 A 
ENDBRANCH   1   2
BRANCH   1   8
ATOM      8  C   UNL     1      -4.206  -0.444   0.845  0.00  0.00    -0.028 A 
ATOM      9  C   UNL     1      -5.265   0.368   1.335  0.00  0.00    +0.005 A 
ATOM     10  C   UNL     1      -6.502  -0.183   1.678  0.00  0.00    +0.000 A 
ATOM     11  C   UNL     1      -6.728  -1.550   1.516  0.00  0.00    +0.000 A 
ATOM     12  C   UNL     1      -5.726  -2.365   0.983  0.00  0.00    +0.000 A 
ATOM     13  C   UNL     1      -4.489  -1.820   0.627  0.00  0.00    +0.005 A 
ENDBRANCH   1   8
BRANCH   1  15
ATOM     14  N   UNL     1      -2.911   2.482   1.664  0.00  0.00    -0.328 N 
ATOM     15  C   UNL     1      -2.429   1.134   1.579  0.00  0.00    +0.226 C 
ATOM     16  O   UNL     1      -1.695   0.695   2.511  0.00  0.00    -0.275 OA
ATOM     17  H   UNL     1      -2.624   3.112   2.446  0.00  0.00    +0.145 HD
ATOM     18  H   UNL     1      -2.615   3.101   2.447  0.00  0.00    +0.145 HD
ENDBRANCH   1  15
BRANCH   1  19
ATOM     19  C   UNL     1      -1.725  -0.849   0.092  0.00  0.00    +0.028 C 
ATOM     20  C   UNL     1      -1.396  -1.873   1.194  0.00  0.00    +0.022 C 
ATOM     21  C   UNL     1       0.105  -1.770   1.411  0.00  0.00    +0.085 C 
ATOM     22  N   UNL     1       0.664  -1.175   0.193  0.00  0.00    -0.302 NA
ATOM     23  C   UNL     1      -0.361  -0.235  -0.268  0.00  0.00    +0.089 C 
BRANCH  22  24
ATOM     24  C   UNL     1       1.951  -0.490   0.429  0.00  0.00    +0.089 C 
BRANCH  24  25
ATOM     25  C   UNL     1       3.076  -1.504   0.671  0.00  0.00    +0.050 C 
BRANCH  25  26
ATOM     26  C   UNL     1       4.414  -0.816   0.696  0.00  0.00    -0.046 A 
ATOM     27  C   UNL     1       5.187  -0.735  -0.480  0.00  0.00    +0.011 A 
ATOM     28  C   UNL     1       6.419  -0.086  -0.426  0.00  0.00    -0.002 A 
ATOM     29  C   UNL     1       6.870   0.486   0.725  0.00  0.00    +0.124 A 
ATOM     30  O   UNL     1       8.108   1.065   0.547  0.00  0.00    -0.491 OA
ATOM     31  C   UNL     1       8.551   0.876  -0.796  0.00  0.00    +0.234 C 
ATOM     32  C   UNL     1       7.415   0.107  -1.514  0.00  0.00    +0.080 C 
ATOM     33  C   UNL     1       6.124   0.454   1.901  0.00  0.00    +0.046 A 
ATOM     34  C   UNL     1       4.885  -0.204   1.884  0.00  0.00    +0.007 A 
ENDBRANCH  25  26
ENDBRANCH  24  25
ENDBRANCH  22  24
ENDBRANCH   1  19
TORSDOF 7
