REMARK  Name = 
REMARK  16 active torsions:
REMARK  status: ('A' for Active; 'I' for Inactive)
REMARK    1  A    between atoms: C_8  and  O_9
REMARK    2  A    between atoms: O_9  and  C_10
REMARK    3  A    between atoms: N_12  and  C_13
REMARK    4  A    between atoms: C_13  and  C_14
REMARK    5  A    between atoms: C_13  and  C_21
REMARK    6  A    between atoms: C_14  and  C_15
REMARK    7  A    between atoms: C_21  and  O_22
REMARK    8  A    between atoms: C_21  and  C_23
REMARK    9  A    between atoms: C_23  and  N_24
REMARK   10  A    between atoms: N_24  and  C_25
REMARK   11  A    between atoms: N_24  and  S_29
REMARK   12  A    between atoms: C_25  and  C_26
REMARK   13  A    between atoms: C_26  and  C_27
REMARK   14  A    between atoms: C_26  and  C_28
REMARK   15  A    between atoms: S_29  and  C_32
REMARK   16  A    between atoms: C_35  and  N_36
REMARK                            x       y       z     vdW  Elec       q    Type
REMARK                         _______ _______ _______ _____ _____    ______ ____
ROOT
ATOM      1  C   UNL     1       0.987  -2.432  -0.473  0.00  0.00    +0.110 C 
ENDROOT
BRANCH   1   4
ATOM      2  C   UNL     1       2.584  -0.660  -1.397  0.00  0.00    +0.401 C 
ATOM      3  O   UNL     1       2.536  -1.151  -2.558  0.00  0.00    -0.226 OA
ATOM      4  N   UNL     1       1.897  -1.291  -0.310  0.00  0.00    -0.275 N 
ATOM      5  H   UNL     1       2.106  -0.937   0.650  0.00  0.00    +0.152 HD
BRANCH   2   6
ATOM      6  O   UNL     1       3.324   0.498  -1.146  0.00  0.00    -0.444 OA
BRANCH   6  14
ATOM      7  C   UNL     1       4.865   2.335  -1.573  0.00  0.00    +0.090 C 
ATOM      8  C   UNL     1       4.325   2.978  -0.315  0.00  0.00    +0.040 C 
ATOM      9  C   UNL     1       4.574   4.444  -0.573  0.00  0.00    +0.163 C 
ATOM     10  O   UNL     1       4.489   4.670  -1.960  0.00  0.00    -0.351 OA
ATOM     11  C   UNL     1       4.765   3.443  -2.601  0.00  0.00    +0.257 C 
ATOM     12  O   UNL     1       3.731   3.152  -3.519  0.00  0.00    -0.347 OA
ATOM     13  C   UNL     1       3.085   1.978  -3.083  0.00  0.00    +0.208 C 
ATOM     14  C   UNL     1       4.021   1.227  -2.156  0.00  0.00    +0.212 C 
ENDBRANCH   6  14
ENDBRANCH   2   6
ENDBRANCH   1   4
BRANCH   1  15
ATOM     15  C   UNL     1       0.858  -3.194   0.868  0.00  0.00    +0.060 C 
BRANCH  15  16
ATOM     16  C   UNL     1       0.051  -4.463   0.742  0.00  0.00    -0.046 A 
ATOM     17  C   UNL     1       0.601  -5.593   0.114  0.00  0.00    +0.004 A 
ATOM     18  C   UNL     1      -0.160  -6.757  -0.034  0.00  0.00    +0.000 A 
ATOM     19  C   UNL     1      -1.473  -6.801   0.442  0.00  0.00    +0.000 A 
ATOM     20  C   UNL     1      -2.026  -5.683   1.070  0.00  0.00    +0.000 A 
ATOM     21  C   UNL     1      -1.269  -4.518   1.223  0.00  0.00    +0.004 A 
ENDBRANCH  15  16
ENDBRANCH   1  15
BRANCH   1  22
ATOM     22  C   UNL     1      -0.388  -1.986  -1.060  0.00  0.00    +0.151 C 
BRANCH  22  23
ATOM     23  O   UNL     1      -0.226  -1.488  -2.363  0.00  0.00    -0.389 OA
ATOM     24  H   UNL     1      -0.057  -2.267  -2.953  0.00  0.00    +0.210 HD
ENDBRANCH  22  23
BRANCH  22  25
ATOM     25  C   UNL     1      -1.171  -0.963  -0.202  0.00  0.00    +0.142 C 
BRANCH  25  26
ATOM     26  N   UNL     1      -0.427   0.295   0.010  0.00  0.00    -0.174 NA
BRANCH  26  27
ATOM     27  S   UNL     1      -0.386   0.868   1.672  0.00  0.00    +0.061 S 
ATOM     28  O   UNL     1       0.509  -0.033   2.476  0.00  0.00    -0.153 OA
ATOM     29  O   UNL     1       0.208   2.249   1.716  0.00  0.00    -0.153 OA
BRANCH  27  30
ATOM     30  C   UNL     1      -1.975   0.886   2.454  0.00  0.00    +0.106 A 
ATOM     31  C   UNL     1      -2.681   2.089   2.616  0.00  0.00    +0.030 A 
ATOM     32  C   UNL     1      -3.931   2.096   3.244  0.00  0.00    +0.024 A 
ATOM     33  C   UNL     1      -4.479   0.906   3.740  0.00  0.00    +0.025 A 
ATOM     34  C   UNL     1      -3.758  -0.290   3.617  0.00  0.00    +0.024 A 
ATOM     35  C   UNL     1      -2.509  -0.297   2.990  0.00  0.00    +0.030 A 
BRANCH  33  36
ATOM     36  N   UNL     1      -5.757   0.915   4.383  0.00  0.00    -0.358 N 
ATOM     37  H   UNL     1      -6.290   1.805   4.497  0.00  0.00    +0.142 HD
ATOM     38  H   UNL     1      -6.171   0.033   4.761  0.00  0.00    +0.142 HD
ENDBRANCH  33  36
ENDBRANCH  27  30
ENDBRANCH  26  27
BRANCH  26  39
ATOM     39  C   UNL     1      -0.576   1.342  -1.029  0.00  0.00    +0.112 C 
BRANCH  39  40
ATOM     40  C   UNL     1      -1.762   2.330  -0.861  0.00  0.00    -0.001 C 
ATOM     41  C   UNL     1      -1.680   3.407  -1.953  0.00  0.00    +0.008 C 
ATOM     42  C   UNL     1      -3.137   1.650  -0.918  0.00  0.00    +0.008 C 
ENDBRANCH  39  40
ENDBRANCH  26  39
ENDBRANCH  25  26
ENDBRANCH  22  25
ENDBRANCH   1  22
TORSDOF 14
