REMARK  Name = 
REMARK  8 active torsions:
REMARK  status: ('A' for Active; 'I' for Inactive)
REMARK    1  A    between atoms: C_1  and  C_2
REMARK    2  A    between atoms: C_4  and  N_5
REMARK    3  A    between atoms: C_9  and  C_11
REMARK    4  A    between atoms: N_13  and  C_14
REMARK    5  A    between atoms: C_15  and  C_16
REMARK    6  A    between atoms: N_28  and  C_29
REMARK    7  A    between atoms: C_29  and  C_30
REMARK    8  A    between atoms: C_30  and  O_31
REMARK                            x       y       z     vdW  Elec       q    Type
REMARK                         _______ _______ _______ _____ _____    ______ ____
ROOT
ATOM      1  N   UNL     1       0.212  -1.427   0.243  0.00  0.00    -0.279 N 
ATOM      2  C   UNL     1       1.642  -1.305   0.287  0.00  0.00    +0.164 A 
ATOM      3  N   UNL     1       2.449  -2.373   0.473  0.00  0.00    -0.232 NA
ATOM      4  C   UNL     1       3.765  -2.033   0.447  0.00  0.00    +0.133 A 
ATOM      5  C   UNL     1       4.018  -0.678   0.232  0.00  0.00    +0.095 A 
ATOM      6  S   UNL     1       2.538   0.108   0.077  0.00  0.00    -0.047 S 
ATOM      7  H   UNL     1      -0.176  -2.398   0.285  0.00  0.00    +0.155 HD
ENDROOT
BRANCH   1  11
ATOM      8  C   UNL     1      -0.696   3.391   0.218  0.00  0.00    +0.088 C 
ATOM      9  C   UNL     1      -1.179   1.987   0.068  0.00  0.00    +0.130 A 
ATOM     10  N   UNL     1      -0.307   0.954   0.191  0.00  0.00    -0.217 NA
ATOM     11  C   UNL     1      -0.717  -0.339   0.095  0.00  0.00    +0.130 A 
ATOM     12  C   UNL     1      -2.072  -0.608  -0.118  0.00  0.00    +0.087 A 
ATOM     13  C   UNL     1      -2.965   0.464  -0.237  0.00  0.00    +0.127 A 
ATOM     14  N   UNL     1      -2.498   1.737  -0.129  0.00  0.00    -0.218 NA
ATOM     15  N   UNL     1      -4.374   0.234  -0.417  0.00  0.00    -0.313 N 
ATOM     16  C   UNL     1      -5.340   1.176   0.157  0.00  0.00    +0.122 C 
ATOM     17  C   UNL     1      -6.633   0.445   0.524  0.00  0.00    +0.103 C 
ATOM     18  N   UNL     1      -7.144  -0.315  -0.636  0.00  0.00    -0.297 NA
ATOM     19  C   UNL     1      -6.153  -1.332  -1.043  0.00  0.00    +0.103 C 
ATOM     20  C   UNL     1      -4.852  -0.662  -1.477  0.00  0.00    +0.122 C 
BRANCH  18  21
ATOM     21  C   UNL     1      -8.434  -0.964  -0.311  0.00  0.00    +0.112 C 
BRANCH  21  22
ATOM     22  C   UNL     1      -9.603   0.016  -0.473  0.00  0.00    +0.171 C 
BRANCH  22  23
ATOM     23  O   UNL     1      -9.596   0.589  -1.752  0.00  0.00    -0.394 OA
ATOM     24  H   UNL     1      -9.932  -0.102  -2.377  0.00  0.00    +0.209 HD
ENDBRANCH  22  23
ENDBRANCH  21  22
ENDBRANCH  18  21
ENDBRANCH   1  11
BRANCH   5  25
ATOM     25  C   UNL     1       5.333  -0.015   0.160  0.00  0.00    +0.256 C 
ATOM     26  O   UNL     1       5.381   1.230  -0.017  0.00  0.00    -0.269 OA
ATOM     27  N   UNL     1       6.551  -0.764   0.283  0.00  0.00    -0.280 N 
ATOM     28  H   UNL     1       6.530  -1.806   0.253  0.00  0.00    +0.155 HD
BRANCH  27  29
ATOM     29  C   UNL     1       7.836  -0.125   0.313  0.00  0.00    +0.055 A 
ATOM     30  C   UNL     1       8.759  -0.350  -0.732  0.00  0.00    -0.028 A 
ATOM     31  C   UNL     1       8.405  -1.239  -1.894  0.00  0.00    +0.046 C 
ATOM     32  C   UNL     1      10.022   0.263  -0.683  0.00  0.00    +0.005 A 
ATOM     33  C   UNL     1      10.367   1.086   0.391  0.00  0.00    +0.002 A 
ATOM     34  C   UNL     1       9.461   1.296   1.433  0.00  0.00    +0.022 A 
ATOM     35  C   UNL     1       8.199   0.694   1.402  0.00  0.00    +0.062 A 
ATOM     36 CL   UNL     1       7.116   0.937   2.769  0.00  0.00    -0.082 Cl
ENDBRANCH  27  29
ENDBRANCH   5  25
TORSDOF 6
