REMARK  Name = 
REMARK  12 active torsions:
REMARK  status: ('A' for Active; 'I' for Inactive)
REMARK    1  A    between atoms: C_1  and  O_2
REMARK    2  A    between atoms: O_2  and  C_3
REMARK    3  A    between atoms: C_12  and  O_13
REMARK    4  A    between atoms: C_17  and  O_18
REMARK    5  A    between atoms: C_17  and  C_31
REMARK    6  A    between atoms: C_20  and  O_21
REMARK    7  A    between atoms: O_21  and  C_22
REMARK    8  A    between atoms: C_24  and  N_25
REMARK    9  A    between atoms: C_26  and  O_27
REMARK   10  A    between atoms: C_28  and  C_29
REMARK   11  A    between atoms: C_31  and  C_32
REMARK   12  A    between atoms: C_34  and  O_35
REMARK                            x       y       z     vdW  Elec       q    Type
REMARK                         _______ _______ _______ _____ _____    ______ ____
ROOT
ATOM      1  C   UNL     1       5.487  -2.565   0.865  0.00  0.00    +0.132 A 
ATOM      2  C   UNL     1       6.879  -2.458   1.050  0.00  0.00    +0.046 A 
ATOM      3  C   UNL     1       7.545  -1.274   0.739  0.00  0.00    +0.004 A 
ATOM      4  C   UNL     1       6.838  -0.181   0.246  0.00  0.00    +0.012 A 
ATOM      5  C   UNL     1       5.448  -0.260   0.054  0.00  0.00    +0.037 A 
ATOM      6  C   UNL     1       4.769  -1.457   0.355  0.00  0.00    +0.075 A 
ATOM      7  C   UNL     1       3.311  -1.528   0.097  0.00  0.00    +0.202 C 
ATOM      8  O   UNL     1       2.767  -2.650  -0.090  0.00  0.00    -0.286 OA
ATOM      9  C   UNL     1       2.522  -0.276  -0.070  0.00  0.00    +0.078 A 
ATOM     10  C   UNL     1       1.115  -0.254   0.100  0.00  0.00    +0.134 A 
ATOM     11  C   UNL     1       0.379   0.898  -0.259  0.00  0.00    +0.030 A 
ATOM     12  C   UNL     1       1.052   2.022  -0.783  0.00  0.00    +0.007 A 
ATOM     13  C   UNL     1       0.192   3.094  -1.425  0.00  0.00    +0.082 C 
ATOM     14  C   UNL     1      -0.954   3.560  -0.490  0.00  0.00    +0.130 C 
ATOM     15  C   UNL     1      -1.522   2.384   0.374  0.00  0.00    +0.079 C 
ATOM     16  C   UNL     1      -1.144   0.985  -0.155  0.00  0.00    +0.158 C 
ATOM     17  C   UNL     1       2.465   2.058  -0.800  0.00  0.00    +0.132 A 
ATOM     18  C   UNL     1       3.202   0.903  -0.451  0.00  0.00    +0.078 A 
ATOM     19  C   UNL     1       4.695   0.902  -0.473  0.00  0.00    +0.198 C 
ATOM     20  O   UNL     1       5.333   1.888  -0.933  0.00  0.00    -0.286 OA
ENDROOT
BRANCH  14  21
ATOM     21  C   UNL     1      -2.061   4.157  -1.356  0.00  0.00    +0.162 C 
ATOM     22  C   UNL     1      -2.373   5.626  -1.342  0.00  0.00    +0.089 C 
ATOM     23  O   UNL     1      -2.723   3.422  -2.077  0.00  0.00    -0.295 OA
ENDBRANCH  14  21
BRANCH   1  25
ATOM     24  C   UNL     1       5.401  -4.922   1.717  0.00  0.00    +0.277 C 
ATOM     25  O   UNL     1       4.796  -3.745   1.190  0.00  0.00    -0.494 OA
ENDBRANCH   1  25
BRANCH  10  26
ATOM     26  O   UNL     1       0.439  -1.352   0.641  0.00  0.00    -0.506 OA
ATOM     27  H   UNL     1       0.887  -2.077   1.183  0.00  0.00    +0.292 HD
ENDBRANCH  10  26
BRANCH  14  28
ATOM     28  O   UNL     1      -0.422   4.546   0.366  0.00  0.00    -0.381 OA
ATOM     29  H   UNL     1      -1.132   4.814   1.007  0.00  0.00    +0.211 HD
ENDBRANCH  14  28
BRANCH  17  30
ATOM     30  O   UNL     1       3.160   3.222  -1.146  0.00  0.00    -0.506 OA
ATOM     31  H   UNL     1       2.748   4.142  -1.191  0.00  0.00    +0.292 HD
ENDBRANCH  17  30
BRANCH  16  32
ATOM     32  O   UNL     1      -1.663   0.017   0.744  0.00  0.00    -0.343 OA
BRANCH  32  33
ATOM     33  C   UNL     1      -2.929  -0.473   0.333  0.00  0.00    +0.253 C 
ATOM     34  C   UNL     1      -2.723  -1.701  -0.581  0.00  0.00    +0.082 C 
ATOM     35  C   UNL     1      -4.075  -2.278  -1.051  0.00  0.00    +0.087 C 
ATOM     36  C   UNL     1      -5.218  -1.953  -0.050  0.00  0.00    +0.160 C 
ATOM     37  C   UNL     1      -4.623  -1.829   1.374  0.00  0.00    +0.148 C 
ATOM     38  C   UNL     1      -5.729  -1.636   2.412  0.00  0.00    +0.041 C 
ATOM     39  O   UNL     1      -3.680  -0.768   1.509  0.00  0.00    -0.346 OA
BRANCH  35  40
ATOM     40  N   UNL     1      -4.380  -1.830  -2.414  0.00  0.00    -0.325 NA
ATOM     41  H   UNL     1      -4.454  -0.787  -2.437  0.00  0.00    +0.119 HD
ATOM     42  H   UNL     1      -5.303  -2.228  -2.703  0.00  0.00    +0.119 HD
ENDBRANCH  35  40
BRANCH  36  43
ATOM     43  O   UNL     1      -5.872  -0.752  -0.385  0.00  0.00    -0.388 OA
ATOM     44  H   UNL     1      -6.635  -0.987  -0.974  0.00  0.00    +0.210 HD
ENDBRANCH  36  43
ENDBRANCH  32  33
ENDBRANCH  16  32
TORSDOF 9
