REMARK  Name = 
REMARK  0 active torsions:
REMARK  status: ('A' for Active; 'I' for Inactive)
REMARK                            x       y       z     vdW  Elec       q    Type
REMARK                         _______ _______ _______ _____ _____    ______ ____
ROOT
ATOM      1  N   UNL     1      -3.727  -0.817  -0.401  0.00  0.00    -0.331 N 
ATOM      2  C   UNL     1      -2.852   0.313  -0.338  0.00  0.00    +0.173 C 
ATOM      3  N   UNL     1      -3.333   1.488  -0.607  0.00  0.00    -0.273 NA
ATOM      4  N   UNL     1      -1.461   0.145   0.025  0.00  0.00    -0.299 N 
ATOM      5  C   UNL     1      -1.079  -1.000   0.870  0.00  0.00    +0.112 C 
ATOM      6  C   UNL     1       0.239  -0.753   1.605  0.00  0.00    +0.054 C 
ATOM      7  C   UNL     1       1.297  -0.334   0.630  0.00  0.00    -0.041 A 
ATOM      8  C   UNL     1       2.623  -0.771   0.771  0.00  0.00    +0.004 A 
ATOM      9  C   UNL     1       3.601  -0.341  -0.130  0.00  0.00    +0.000 A 
ATOM     10  C   UNL     1       3.264   0.537  -1.163  0.00  0.00    +0.000 A 
ATOM     11  C   UNL     1       1.948   0.987  -1.299  0.00  0.00    +0.005 A 
ATOM     12  C   UNL     1       0.955   0.547  -0.409  0.00  0.00    -0.027 A 
ATOM     13  C   UNL     1      -0.452   1.081  -0.515  0.00  0.00    +0.143 C 
ATOM     14  H   UNL     1      -4.739  -0.686  -0.627  0.00  0.00    +0.145 HD
ATOM     15  H   UNL     1      -3.374  -1.790  -0.274  0.00  0.00    +0.145 HD
ATOM     16  H   UNL     1      -2.765   2.361  -0.570  0.00  0.00    +0.189 HD
ENDROOT
TORSDOF 0
