REMARK  Name = 
REMARK  17 active torsions:
REMARK  status: ('A' for Active; 'I' for Inactive)
REMARK    1  A    between atoms: C_1  and  N_2
REMARK    2  A    between atoms: N_2  and  C_3
REMARK    3  A    between atoms: N_2  and  C_4
REMARK    4  A    between atoms: N_2  and  C_5
REMARK    5  A    between atoms: C_5  and  C_6
REMARK    6  A    between atoms: C_6  and  C_7
REMARK    7  A    between atoms: C_7  and  C_8
REMARK    8  A    between atoms: C_8  and  C_9
REMARK    9  A    between atoms: C_9  and  C_10
REMARK   10  A    between atoms: C_10  and  C_11
REMARK   11  A    between atoms: C_11  and  C_12
REMARK   12  A    between atoms: C_12  and  C_13
REMARK   13  A    between atoms: C_13  and  C_14
REMARK   14  A    between atoms: C_14  and  N_15
REMARK   15  A    between atoms: N_15  and  C_16
REMARK   16  A    between atoms: N_15  and  C_17
REMARK   17  A    between atoms: N_15  and  C_18
REMARK                            x       y       z     vdW  Elec       q    Type
REMARK                         _______ _______ _______ _____ _____    ______ ____
ROOT
ATOM      1  C   UNL     1       0.771   0.483  -0.468  0.00  0.00    -0.000 C 
ENDROOT
BRANCH   1   2
ATOM      2  C   UNL     1       1.544   0.903   0.792  0.00  0.00    -0.000 C 
BRANCH   2   3
ATOM      3  C   UNL     1       3.066   0.755   0.624  0.00  0.00    -0.002 C 
BRANCH   3   4
ATOM      4  C   UNL     1       3.546  -0.692   0.837  0.00  0.00    -0.018 C 
BRANCH   4   5
ATOM      5  C   UNL     1       4.888  -1.040   0.139  0.00  0.00    -0.076 C 
BRANCH   5   7
ATOM      6  C   UNL     1       7.294  -1.216   0.186  0.00  0.00    -0.093 C 
ATOM      7  N   UNL     1       6.142  -0.428   0.693  0.00  0.00    +0.374 N 
ATOM      8  C   UNL     1       6.318   0.969   0.225  0.00  0.00    -0.093 C 
ATOM      9  C   UNL     1       6.176  -0.465   2.175  0.00  0.00    -0.093 C 
ENDBRANCH   5   7
ENDBRANCH   4   5
ENDBRANCH   3   4
ENDBRANCH   2   3
ENDBRANCH   1   2
BRANCH   1  10
ATOM     10  C   UNL     1      -0.737   0.680  -0.277  0.00  0.00    -0.000 C 
BRANCH  10  11
ATOM     11  C   UNL     1      -1.512   0.253  -1.534  0.00  0.00    -0.000 C 
BRANCH  11  12
ATOM     12  C   UNL     1      -3.019   0.530  -1.417  0.00  0.00    -0.002 C 
BRANCH  12  13
ATOM     13  C   UNL     1      -3.699  -0.328  -0.336  0.00  0.00    -0.018 C 
BRANCH  13  14
ATOM     14  C   UNL     1      -5.215  -0.581  -0.561  0.00  0.00    -0.076 C 
BRANCH  14  15
ATOM     15  N   UNL     1      -6.148   0.583  -0.388  0.00  0.00    +0.374 N 
ATOM     16  C   UNL     1      -7.518   0.042  -0.199  0.00  0.00    -0.093 C 
ATOM     17  C   UNL     1      -5.809   1.403   0.799  0.00  0.00    -0.093 C 
ATOM     18  C   UNL     1      -6.172   1.443  -1.597  0.00  0.00    -0.093 C 
ENDBRANCH  14  15
ENDBRANCH  13  14
ENDBRANCH  12  13
ENDBRANCH  11  12
ENDBRANCH  10  11
ENDBRANCH   1  10
TORSDOF 11
