REMARK  Name = 
REMARK  4 active torsions:
REMARK  status: ('A' for Active; 'I' for Inactive)
REMARK    1  A    between atoms: N_6  and  C1*_9
REMARK    2  A    between atoms: C3*_11  and  O3*_12
REMARK    3  A    between atoms: C4*_13  and  C5*_14
REMARK    4  A    between atoms: C5*_14  and  O5*_15
REMARK                            x       y       z     vdW  Elec       q    Type
REMARK                         _______ _______ _______ _____ _____    ______ ____
ROOT
ATOM      1  N   UNL     1       5.045  -0.073   0.955  0.00  0.00    -0.327 N 
ATOM      2  C   UNL     1       3.676   0.217   0.683  0.00  0.00    +0.218 A 
ATOM      3  N   UNL     1       3.299   1.477   0.360  0.00  0.00    -0.159 NA
ATOM      4  C   UNL     1       1.998   1.762   0.101  0.00  0.00    +0.354 A 
ATOM      5  O   UNL     1       1.683   2.942  -0.214  0.00  0.00    -0.244 OA
ATOM      6  N   UNL     1       1.048   0.776   0.178  0.00  0.00    -0.256 N 
ATOM      7  C   UNL     1       1.446  -0.497   0.480  0.00  0.00    +0.209 A 
ATOM      8  N   UNL     1       2.749  -0.769   0.737  0.00  0.00    -0.205 NA
ATOM      9  H   UNL     1       5.341  -1.043   1.201  0.00  0.00    +0.145 HD
ATOM     10  H   UNL     1       5.764   0.683   0.912  0.00  0.00    +0.145 HD
ENDROOT
BRANCH   6  11
ATOM     11  C1* UNL     1      -0.370   1.052  -0.132  0.00  0.00    +0.228 C 
ATOM     12  C2* UNL     1      -0.691   0.663  -1.577  0.00  0.00    +0.088 C 
ATOM     13  C3* UNL     1      -1.657  -0.482  -1.425  0.00  0.00    +0.150 C 
ATOM     14  C4* UNL     1      -2.217  -0.272  -0.022  0.00  0.00    +0.175 C 
ATOM     15  O4* UNL     1      -1.211   0.336   0.753  0.00  0.00    -0.348 OA
BRANCH  13  16
ATOM     16  O3* UNL     1      -2.657  -0.486  -2.416  0.00  0.00    -0.389 OA
ATOM     17  H3* UNL     1      -3.157   0.370  -2.357  0.00  0.00    +0.210 HD
ENDBRANCH  13  16
BRANCH  14  18
ATOM     18  C5* UNL     1      -2.650  -1.594   0.622  0.00  0.00    +0.190 C 
BRANCH  18  19
ATOM     19  O5* UNL     1      -3.174  -1.366   1.902  0.00  0.00    -0.392 OA
ATOM     20  H5* UNL     1      -4.088  -1.000   1.774  0.00  0.00    +0.210 HD
ENDBRANCH  18  19
ENDBRANCH  14  18
ENDBRANCH   6  11
TORSDOF 4
