REMARK  Name = 
REMARK  3 active torsions:
REMARK  status: ('A' for Active; 'I' for Inactive)
REMARK    1  A    between atoms: C_1  and  N_2
REMARK    2  A    between atoms: C_7  and  O_8
REMARK    3  A    between atoms: C_9  and  C_10
REMARK                            x       y       z     vdW  Elec       q    Type
REMARK                         _______ _______ _______ _____ _____    ______ ____
ROOT
ATOM      1  C   UNL     1      -2.034   0.841   0.448  0.00  0.00    +0.148 C 
ATOM      2  N   UNL     1      -0.596   0.686   0.182  0.00  0.00    -0.351 N 
ATOM      3  C   UNL     1       0.177   1.816   0.163  0.00  0.00    +0.089 A 
ATOM      4  C   UNL     1       1.542   1.748  -0.099  0.00  0.00    +0.072 A 
ATOM      5  C   UNL     1       2.131   0.515  -0.352  0.00  0.00    +0.223 A 
ATOM      6  O   UNL     1       3.364   0.452  -0.603  0.00  0.00    -0.284 OA
ATOM      7  C   UNL     1       1.356  -0.647  -0.331  0.00  0.00    +0.183 A 
ATOM      8  C   UNL     1      -0.028  -0.555  -0.034  0.00  0.00    +0.061 A 
ATOM      9  C   UNL     1      -0.847  -1.829   0.017  0.00  0.00    +0.067 C 
ENDROOT
BRANCH   7  10
ATOM     10  O   UNL     1       1.981  -1.867  -0.613  0.00  0.00    -0.502 OA
ATOM     11  H   UNL     1       1.489  -2.749  -0.665  0.00  0.00    +0.292 HD
ENDBRANCH   7  10
TORSDOF 1
