REMARK  Name = 
REMARK  7 active torsions:
REMARK  status: ('A' for Active; 'I' for Inactive)
REMARK    1  A    between atoms: O_1  and  C_2
REMARK    2  A    between atoms: C_2  and  C_4
REMARK    3  A    between atoms: C_7  and  N_10
REMARK    4  A    between atoms: C_12  and  C_22
REMARK    5  A    between atoms: C_14  and  C_15
REMARK    6  A    between atoms: C_20  and  O_21
REMARK    7  A    between atoms: C_27  and  O_28
REMARK                            x       y       z     vdW  Elec       q    Type
REMARK                         _______ _______ _______ _____ _____    ______ ____
ROOT
ATOM      1  N   UNL     1       0.030   0.351  -0.065  0.00  0.00    -0.212 N 
ATOM      2  N   UNL     1      -0.899   1.278   0.082  0.00  0.00    -0.144 NA
ATOM      3  C   UNL     1      -1.973   0.652   0.601  0.00  0.00    +0.186 A 
ATOM      4  N   UNL     1      -1.747  -0.663   0.820  0.00  0.00    -0.206 NA
ATOM      5  C   UNL     1      -0.480  -0.819   0.384  0.00  0.00    +0.168 A 
ENDROOT
BRANCH   1   9
ATOM      6  C   UNL     1       3.793   1.152  -1.892  0.00  0.00    +0.059 A 
ATOM      7  C   UNL     1       3.230   2.061  -0.980  0.00  0.00    +0.017 A 
ATOM      8  C   UNL     1       1.994   1.792  -0.383  0.00  0.00    +0.028 A 
ATOM      9  C   UNL     1       1.306   0.606  -0.676  0.00  0.00    +0.068 A 
ATOM     10  C   UNL     1       1.855  -0.292  -1.604  0.00  0.00    +0.028 A 
ATOM     11  C   UNL     1       3.090  -0.026  -2.201  0.00  0.00    +0.017 A 
BRANCH   6  12
ATOM     12  C   UNL     1       5.101   1.438  -2.521  0.00  0.00    +0.337 C 
ATOM     13  O   UNL     1       5.607   0.625  -3.341  0.00  0.00    -0.245 OA
BRANCH  12  14
ATOM     14  O   UNL     1       5.787   2.610  -2.211  0.00  0.00    -0.477 OA
ATOM     15  H   UNL     1       6.684   2.815  -2.636  0.00  0.00    +0.295 HD
ENDBRANCH  12  14
ENDBRANCH   6  12
ENDBRANCH   1   9
BRANCH   5  16
ATOM     16  C   UNL     1       0.256  -2.096   0.512  0.00  0.00    +0.061 A 
ATOM     17  C   UNL     1       1.567  -2.108   1.022  0.00  0.00    +0.015 A 
ATOM     18  C   UNL     1       2.260  -3.313   1.161  0.00  0.00    +0.001 A 
ATOM     19  C   UNL     1       1.649  -4.517   0.807  0.00  0.00    +0.004 A 
ATOM     20  C   UNL     1       0.342  -4.520   0.317  0.00  0.00    +0.046 A 
ATOM     21  C   UNL     1      -0.362  -3.315   0.169  0.00  0.00    +0.128 A 
BRANCH  21  22
ATOM     22  O   UNL     1      -1.664  -3.327  -0.330  0.00  0.00    -0.506 OA
ATOM     23  H   UNL     1      -2.127  -4.191  -0.587  0.00  0.00    +0.292 HD
ENDBRANCH  21  22
ENDBRANCH   5  16
BRANCH   3  24
ATOM     24  C   UNL     1      -3.228   1.336   0.985  0.00  0.00    +0.062 A 
ATOM     25  C   UNL     1      -3.933   0.861   2.107  0.00  0.00    +0.015 A 
ATOM     26  C   UNL     1      -5.080   1.516   2.558  0.00  0.00    +0.001 A 
ATOM     27  C   UNL     1      -5.540   2.655   1.897  0.00  0.00    +0.004 A 
ATOM     28  C   UNL     1      -4.866   3.128   0.771  0.00  0.00    +0.046 A 
ATOM     29  C   UNL     1      -3.726   2.470   0.292  0.00  0.00    +0.128 A 
BRANCH  29  30
ATOM     30  O   UNL     1      -3.146   2.949  -0.884  0.00  0.00    -0.506 OA
ATOM     31  H   UNL     1      -2.439   2.446  -1.403  0.00  0.00    +0.292 HD
ENDBRANCH  29  30
ENDBRANCH   3  24
TORSDOF 7
