REMARK  Name = 
REMARK  48 active torsions:
REMARK  status: ('A' for Active; 'I' for Inactive)
REMARK    1  A    between atoms: C_1  and  C_2
REMARK    2  A    between atoms: C_2  and  C_3
REMARK    3  A    between atoms: C_2  and  C_4
REMARK    4  A    between atoms: C_4  and  C_5
REMARK    5  A    between atoms: C_5  and  N_6
REMARK    6  A    between atoms: C_5  and  C_91
REMARK    7  A    between atoms: C_7  and  C_9
REMARK    8  A    between atoms: C_9  and  C_10
REMARK    9  A    between atoms: C_9  and  N_21
REMARK   10  A    between atoms: C_10  and  C_11
REMARK   11  A    between atoms: C_14  and  N_15
REMARK   12  A    between atoms: C_22  and  C_24
REMARK   13  A    between atoms: C_24  and  C_25
REMARK   14  A    between atoms: C_24  and  N_43
REMARK   15  A    between atoms: C_25  and  C_26
REMARK   16  A    between atoms: C_29  and  N_30
REMARK   17  A    between atoms: C_31  and  C_33
REMARK   18  A    between atoms: C_44  and  CA_46
REMARK   19  A    between atoms: CA_46  and  C_47
REMARK   20  A    between atoms: CA_46  and  N_49
REMARK   21  A    between atoms: C_47  and  O_48
REMARK   22  A    between atoms: C_50  and  CA_52
REMARK   23  A    between atoms: CA_52  and  C_53
REMARK   24  A    between atoms: CA_52  and  N_60
REMARK   25  A    between atoms: C_53  and  C_54
REMARK   26  A    between atoms: C_61  and  CA_63
REMARK   27  A    between atoms: CA_63  and  C_64
REMARK   28  A    between atoms: CA_63  and  N_72
REMARK   29  A    between atoms: C_64  and  C_65
REMARK   30  A    between atoms: C_73  and  CA_75
REMARK   31  A    between atoms: CA_75  and  C_76
REMARK   32  A    between atoms: CA_75  and  N_87
REMARK   33  A    between atoms: C_76  and  C_77
REMARK   34  A    between atoms: C_88  and  C_89
REMARK   35  A    between atoms: N_93  and  C_94
REMARK   36  A    between atoms: C_94  and  C_95
REMARK   37  A    between atoms: C_94  and  C_103
REMARK   38  A    between atoms: C_95  and  C_96
REMARK   39  A    between atoms: C_96  and  C_97
REMARK   40  A    between atoms: C_97  and  C_98
REMARK   41  A    between atoms: C_98  and  N_99
REMARK   42  A    between atoms: N_99  and  C_100
REMARK   43  A    between atoms: C_100  and  C_101
REMARK   44  A    between atoms: C_100  and  C_102
REMARK   45  A    between atoms: C_109  and  C_110
REMARK   46  A    between atoms: N_112  and  C_113
REMARK   47  A    between atoms: C_113  and  C_114
REMARK   48  A    between atoms: C_113  and  C_115
REMARK                            x       y       z     vdW  Elec       q    Type
REMARK                         _______ _______ _______ _____ _____    ______ ____
ROOT
ATOM      1  C   UNL     1      -7.485 -12.581  13.609  0.00  0.00    +0.163 C 
ENDROOT
BRANCH   1   3
ATOM      2  N   UNL     1      -5.312 -12.430  12.167  0.00  0.00    -0.302 N 
ATOM      3  C   UNL     1      -6.511 -12.978  12.449  0.00  0.00    +0.234 C 
ATOM      4  O   UNL     1      -6.833 -13.844  11.632  0.00  0.00    -0.274 OA
ATOM      5  H   UNL     1      -4.938 -12.856  11.338  0.00  0.00    +0.150 HD
BRANCH   2   6
ATOM      6  C   UNL     1      -4.319 -11.774  12.967  0.00  0.00    +0.163 C 
BRANCH   6   8
ATOM      7  N   UNL     1      -1.700 -12.994  13.141  0.00  0.00    -0.302 N 
ATOM      8  C   UNL     1      -3.010 -13.046  13.347  0.00  0.00    +0.234 C 
ATOM      9  O   UNL     1      -3.174 -14.071  14.054  0.00  0.00    -0.274 OA
ATOM     10  H   UNL     1      -1.296 -13.883  13.415  0.00  0.00    +0.150 HD
BRANCH   7  11
ATOM     11  C   UNL     1      -0.894 -12.271  12.233  0.00  0.00    +0.159 C 
BRANCH  11  12
ATOM     12  C   UNL     1       0.463 -12.860  12.234  0.00  0.00    +0.234 C 
ATOM     13  O   UNL     1       0.959 -13.573  11.379  0.00  0.00    -0.274 OA
ATOM     14  N   UNL     1       1.150 -12.477  13.307  0.00  0.00    -0.302 N 
ATOM     15  H   UNL     1       2.035 -12.932  13.322  0.00  0.00    +0.150 HD
BRANCH  14  16
ATOM     16  C   UNL     1       0.547 -11.897  14.494  0.00  0.00    +0.159 C 
BRANCH  16  17
ATOM     17  C   UNL     1       1.397 -10.341  15.115  0.00  0.00    +0.237 C 
ATOM     18  O   UNL     1       0.687  -9.461  15.619  0.00  0.00    -0.274 OA
ATOM     19  N   UNL     1       2.951 -10.313  15.230  0.00  0.00    -0.288 N 
ATOM     20  C   UNL     1       3.950 -11.304  14.501  0.00  0.00    +0.109 C 
ATOM     21  C   UNL     1       5.025 -11.753  15.527  0.00  0.00    +0.021 C 
ATOM     22  C   UNL     1       4.999 -10.586  16.577  0.00  0.00    +0.033 C 
ATOM     23  C   UNL     1       3.627  -9.822  16.585  0.00  0.00    +0.162 C 
BRANCH  23  24
ATOM     24  C   UNL     1       3.140  -9.914  18.287  0.00  0.00    +0.234 C 
ATOM     25  O   UNL     1       2.340  -9.052  18.735  0.00  0.00    -0.274 OA
ATOM     26  N   UNL     1       3.137 -11.384  18.972  0.00  0.00    -0.303 N 
ATOM     27  H   UNL     1       2.321 -11.199  19.539  0.00  0.00    +0.149 HD
BRANCH  26  28
ATOM     28  C   UNL     1       2.736 -13.163  18.460  0.00  0.00    +0.156 C 
ATOM     29  C   UNL     1       4.051 -13.447  17.834  0.00  0.00    +0.038 C 
BRANCH  28  30
ATOM     30  C   UNL     1       1.019 -13.837  17.759  0.00  0.00    +0.231 C 
ATOM     31  N   UNL     1       0.567 -15.039  17.413  0.00  0.00    -0.328 N 
ATOM     32  O   UNL     1      -0.014 -13.153  17.501  0.00  0.00    -0.274 OA
ATOM     33  H   UNL     1       0.131 -15.037  16.473  0.00  0.00    +0.145 HD
ATOM     34  H   UNL     1       1.122 -15.816  17.591  0.00  0.00    +0.145 HD
ENDBRANCH  28  30
ENDBRANCH  26  28
ENDBRANCH  23  24
ENDBRANCH  16  17
BRANCH  16  35
ATOM     35  C   UNL     1       0.239 -13.240  15.180  0.00  0.00    +0.032 C 
BRANCH  35  36
ATOM     36  C   UNL     1       1.715 -13.664  15.560  0.00  0.00    +0.003 C 
BRANCH  36  37
ATOM     37  C   UNL     1       2.086 -12.416  16.365  0.00  0.00    +0.015 C 
BRANCH  37  38
ATOM     38  C   UNL     1       1.141 -11.482  17.626  0.00  0.00    +0.081 C 
BRANCH  38  39
ATOM     39  N   UNL     1       1.017 -12.127  19.200  0.00  0.00    -0.314 NA
ATOM     40  H   UNL     1       0.499 -13.021  19.203  0.00  0.00    +0.122 HD
BRANCH  39  41
ATOM     41  C   UNL     1       0.674 -11.678  20.497  0.00  0.00    +0.047 C 
ATOM     42  C   UNL     1      -0.672 -11.270  20.051  0.00  0.00    +0.023 C 
ATOM     43  C   UNL     1       0.920 -12.907  21.418  0.00  0.00    +0.023 C 
ENDBRANCH  39  41
ENDBRANCH  38  39
ENDBRANCH  37  38
ENDBRANCH  36  37
ENDBRANCH  35  36
ENDBRANCH  16  35
ENDBRANCH  14  16
ENDBRANCH  11  12
BRANCH  11  44
ATOM     44  C   UNL     1      -0.873 -10.720  12.504  0.00  0.00    +0.034 C 
BRANCH  44  46
ATOM     45  C   UNL     1       1.234 -10.164  11.254  0.00  0.00    +0.007 C 
ATOM     46  C   UNL     1       0.424  -9.962  12.488  0.00  0.00    -0.015 C 
ATOM     47  C   UNL     1       0.256  -8.529  12.940  0.00  0.00    +0.007 C 
ENDBRANCH  44  46
ENDBRANCH  11  44
ENDBRANCH   7  11
ENDBRANCH   6   8
BRANCH   6  48
ATOM     48  C   UNL     1      -4.024 -10.293  12.745  0.00  0.00    +0.067 C 
BRANCH  48  49
ATOM     49  C   UNL     1      -3.456 -10.251  11.377  0.00  0.00    -0.045 A 
ATOM     50  C   UNL     1      -3.007 -11.422  10.755  0.00  0.00    +0.005 A 
ATOM     51  C   UNL     1      -1.959 -11.391   9.870  0.00  0.00    +0.023 A 
ATOM     52  C   UNL     1      -1.501 -10.236   9.346  0.00  0.00    +0.035 A 
ATOM     53  C   UNL     1      -2.113  -9.046   9.804  0.00  0.00    +0.023 A 
ATOM     54  C   UNL     1      -3.075  -9.043  10.846  0.00  0.00    +0.005 A 
BRANCH  52  55
ATOM     55  N   UNL     1      -0.420 -10.372   8.445  0.00  0.00    -0.270 N 
ATOM     56  C   UNL     1       0.286 -11.550   8.172  0.00  0.00    +0.301 C 
ATOM     57  N   UNL     1       1.111 -11.478   7.110  0.00  0.00    -0.313 N 
ATOM     58  O   UNL     1       0.280 -12.639   8.736  0.00  0.00    -0.253 OA
ATOM     59  H   UNL     1      -0.202  -9.548   7.920  0.00  0.00    +0.156 HD
ATOM     60  H   UNL     1       1.546 -12.365   6.876  0.00  0.00    +0.146 HD
ATOM     61  H   UNL     1       1.119 -10.725   6.452  0.00  0.00    +0.146 HD
ENDBRANCH  52  55
ENDBRANCH  48  49
ENDBRANCH   6  48
ENDBRANCH   2   6
ENDBRANCH   1   3
BRANCH   1  62
ATOM     62  N   UNL     1      -7.579 -11.179  13.968  0.00  0.00    -0.302 N 
ATOM     63  C   UNL     1      -7.355 -10.712  15.172  0.00  0.00    +0.236 C 
ATOM     64  O   UNL     1      -7.438  -9.504  15.404  0.00  0.00    -0.274 OA
ATOM     65  H   UNL     1      -8.057 -10.453  13.457  0.00  0.00    +0.150 HD
BRANCH  63  66
ATOM     66  CA  UNL     1      -6.984 -11.792  16.144  0.00  0.00    +0.184 C 
BRANCH  66  67
ATOM     67  N   UNL     1      -7.749 -11.743  17.257  0.00  0.00    -0.301 N 
ATOM     68  C   UNL     1      -7.180 -11.205  18.342  0.00  0.00    +0.234 C 
ATOM     69  O   UNL     1      -8.138 -11.294  19.138  0.00  0.00    -0.274 OA
ATOM     70  H   UNL     1      -8.411 -12.483  17.448  0.00  0.00    +0.150 HD
BRANCH  68  71
ATOM     71  CA  UNL     1      -5.294 -10.706  18.610  0.00  0.00    +0.163 C 
BRANCH  71  72
ATOM     72  N   UNL     1      -5.013  -9.406  18.406  0.00  0.00    -0.302 N 
ATOM     73  C   UNL     1      -5.074  -8.695  19.535  0.00  0.00    +0.234 C 
ATOM     74  O   UNL     1      -5.506  -7.761  19.194  0.00  0.00    -0.274 OA
ATOM     75  H   UNL     1      -5.477  -8.961  17.610  0.00  0.00    +0.150 HD
BRANCH  73  76
ATOM     76  CA  UNL     1      -5.085  -8.786  21.071  0.00  0.00    +0.163 C 
BRANCH  76  77
ATOM     77  N   UNL     1      -3.816  -9.098  21.483  0.00  0.00    -0.302 N 
ATOM     78  C   UNL     1      -3.003  -8.169  22.031  0.00  0.00    +0.234 C 
ATOM     79  O   UNL     1      -1.903  -8.608  22.362  0.00  0.00    -0.274 OA
ATOM     80  H   UNL     1      -3.476 -10.005  21.220  0.00  0.00    +0.150 HD
BRANCH  78  81
ATOM     81  CA  UNL     1      -3.470  -6.652  22.266  0.00  0.00    +0.163 C 
BRANCH  81  82
ATOM     82  N   UNL     1      -4.604  -6.524  23.225  0.00  0.00    -0.304 N 
ATOM     83  C   UNL     1      -4.509  -5.984  24.483  0.00  0.00    +0.211 C 
ATOM     84  C   UNL     1      -5.817  -5.885  25.245  0.00  0.00    +0.109 C 
ATOM     85  O   UNL     1      -3.457  -5.588  24.971  0.00  0.00    -0.276 OA
ATOM     86  H   UNL     1      -5.498  -6.910  22.971  0.00  0.00    +0.149 HD
ENDBRANCH  81  82
BRANCH  81  87
ATOM     87  C   UNL     1      -3.609  -5.676  20.961  0.00  0.00    +0.067 C 
BRANCH  87  88
ATOM     88  C   UNL     1      -4.857  -5.557  19.965  0.00  0.00    -0.045 A 
ATOM     89  C   UNL     1      -6.154  -5.665  20.578  0.00  0.00    +0.012 A 
ATOM     90  C   UNL     1      -7.262  -6.377  20.025  0.00  0.00    -0.018 A 
ATOM     91  C   UNL     1      -7.790  -7.367  20.909  0.00  0.00    +0.008 A 
ATOM     92  C   UNL     1      -8.874  -7.138  21.652  0.00  0.00    +0.001 A 
ATOM     93  C   UNL     1      -9.585  -7.430  20.533  0.00  0.00    +0.001 A 
ATOM     94  C   UNL     1      -8.928  -7.303  18.974  0.00  0.00    +0.008 A 
ATOM     95  C   UNL     1      -7.511  -6.623  18.704  0.00  0.00    -0.018 A 
ATOM     96  C   UNL     1      -6.098  -6.238  17.825  0.00  0.00    +0.009 A 
ATOM     97  C   UNL     1      -4.789  -5.761  18.527  0.00  0.00    +0.004 A 
ENDBRANCH  87  88
ENDBRANCH  81  87
ENDBRANCH  78  81
ENDBRANCH  76  77
BRANCH  76  98
ATOM     98  C   UNL     1      -6.219  -9.348  21.959  0.00  0.00    +0.067 C 
BRANCH  98  99
ATOM     99  C   UNL     1      -6.529 -10.778  21.916  0.00  0.00    -0.045 A 
ATOM    100  C   UNL     1      -7.398 -11.694  22.353  0.00  0.00    +0.005 A 
ATOM    101  C   UNL     1      -7.302 -13.082  21.886  0.00  0.00    +0.020 A 
ATOM    102  C   UNL     1      -6.535 -13.486  20.835  0.00  0.00    +0.041 A 
ATOM    103 CL   UNL     1      -6.508 -14.924  19.905  0.00  0.00    -0.084 Cl
ATOM    104  C   UNL     1      -6.071 -12.435  20.227  0.00  0.00    +0.020 A 
ATOM    105  C   UNL     1      -6.443 -11.153  20.680  0.00  0.00    +0.005 A 
ENDBRANCH  98  99
ENDBRANCH  76  98
ENDBRANCH  73  76
ENDBRANCH  71  72
BRANCH  71 106
ATOM    106  C   UNL     1      -3.835 -11.474  18.902  0.00  0.00    +0.068 C 
BRANCH 106 107
ATOM    107  C   UNL     1      -3.478 -11.847  17.602  0.00  0.00    -0.027 A 
ATOM    108  C   UNL     1      -4.591 -12.183  17.033  0.00  0.00    +0.114 A 
ATOM    109  N   UNL     1      -4.775 -11.552  15.958  0.00  0.00    -0.263 NA
ATOM    110  C   UNL     1      -3.930 -12.117  15.300  0.00  0.00    +0.111 A 
ATOM    111  C   UNL     1      -2.819 -11.461  15.495  0.00  0.00    +0.020 A 
ATOM    112  C   UNL     1      -2.521 -11.380  16.798  0.00  0.00    +0.006 A 
ENDBRANCH 106 107
ENDBRANCH  71 106
ENDBRANCH  68  71
ENDBRANCH  66  67
BRANCH  66 113
ATOM    113  C   UNL     1      -6.328 -13.509  15.948  0.00  0.00    +0.187 C 
BRANCH 113 114
ATOM    114  O   UNL     1      -6.972 -14.422  16.795  0.00  0.00    -0.393 OA
ATOM    115  H   UNL     1      -6.342 -14.515  17.541  0.00  0.00    +0.209 HD
ENDBRANCH 113 114
ENDBRANCH  66 113
ENDBRANCH  63  66
ENDBRANCH   1  62
BRANCH   1 116
ATOM    116  C   UNL     1      -8.755 -13.379  13.704  0.00  0.00    +0.067 C 
BRANCH 116 117
ATOM    117  C   UNL     1      -9.544 -12.783  12.635  0.00  0.00    -0.045 A 
ATOM    118  C   UNL     1     -10.646 -13.459  12.283  0.00  0.00    +0.005 A 
ATOM    119  C   UNL     1     -10.964 -13.185  10.998  0.00  0.00    +0.023 A 
ATOM    120  C   UNL     1     -10.706 -11.969  10.345  0.00  0.00    +0.033 A 
ATOM    121  C   UNL     1      -9.643 -11.236  10.735  0.00  0.00    +0.023 A 
ATOM    122  C   UNL     1      -9.036 -11.724  11.827  0.00  0.00    +0.005 A 
BRANCH 120 123
ATOM    123  N   UNL     1     -11.472 -11.487   9.299  0.00  0.00    -0.284 N 
ATOM    124  C   UNL     1     -12.719 -11.904   8.912  0.00  0.00    +0.238 C 
ATOM    125  O   UNL     1     -13.192 -11.410   7.885  0.00  0.00    -0.273 OA
ATOM    126  H   UNL     1     -11.120 -10.663   8.819  0.00  0.00    +0.155 HD
BRANCH 124 127
ATOM    127  C   UNL     1     -13.418 -13.088   9.615  0.00  0.00    +0.169 C 
ATOM    128  C   UNL     1     -14.662 -13.004  10.445  0.00  0.00    +0.128 C 
ATOM    129  C   UNL     1     -14.902 -14.415  11.002  0.00  0.00    +0.223 C 
ATOM    130  O   UNL     1     -15.412 -14.611  12.103  0.00  0.00    -0.275 OA
ATOM    131  N   UNL     1     -14.541 -15.475  10.203  0.00  0.00    -0.240 N 
ATOM    132  C   UNL     1     -13.943 -15.391   8.982  0.00  0.00    +0.306 C 
ATOM    133  O   UNL     1     -13.893 -16.326   8.195  0.00  0.00    -0.252 OA
ATOM    134  N   UNL     1     -13.429 -14.179   8.676  0.00  0.00    -0.287 N 
ATOM    135  H   UNL     1     -14.836 -16.398  10.489  0.00  0.00    +0.159 HD
ATOM    136  H   UNL     1     -12.999 -14.073   7.763  0.00  0.00    +0.151 HD
ENDBRANCH 124 127
ENDBRANCH 120 123
ENDBRANCH 116 117
ENDBRANCH   1 116
TORSDOF 42
