REMARK  Name = 
REMARK  9 active torsions:
REMARK  status: ('A' for Active; 'I' for Inactive)
REMARK    1  A    between atoms: C_1  and  C_2
REMARK    2  A    between atoms: C_2  and  C_3
REMARK    3  A    between atoms: C_2  and  N_4
REMARK    4  A    between atoms: N_4  and  C_5
REMARK    5  A    between atoms: C_6  and  N_11
REMARK    6  A    between atoms: C_17  and  C_19
REMARK    7  A    between atoms: C_26  and  N_27
REMARK    8  A    between atoms: N_27  and  S_28
REMARK    9  A    between atoms: S_28  and  C_29
REMARK                            x       y       z     vdW  Elec       q    Type
REMARK                         _______ _______ _______ _____ _____    ______ ____
ROOT
ATOM      1  N   UNL     1       2.452  -0.008   0.014  0.00  0.00    -0.311 N 
ATOM      2  C   UNL     1       2.522  -0.836   1.225  0.00  0.00    +0.125 C 
ATOM      3  C   UNL     1       1.195  -0.767   1.993  0.00  0.00    +0.127 C 
ATOM      4  N   UNL     1       0.037  -0.889   1.094  0.00  0.00    -0.293 N 
ATOM      5  C   UNL     1       0.236  -1.049  -0.353  0.00  0.00    +0.127 C 
ATOM      6  C   UNL     1       1.268  -0.035  -0.852  0.00  0.00    +0.125 C 
ATOM      7  C   UNL     1      -1.274  -1.061   1.664  0.00  0.00    +0.263 C 
ATOM      8  O   UNL     1      -1.439  -1.861   2.619  0.00  0.00    -0.268 OA
ENDROOT
BRANCH   7   9
ATOM      9  C   UNL     1      -2.435  -0.323   1.136  0.00  0.00    +0.103 A 
ATOM     10  C   UNL     1      -3.767  -0.675   1.348  0.00  0.00    +0.041 A 
ATOM     11  C   UNL     1      -4.498   0.284   0.681  0.00  0.00    +0.002 A 
ATOM     12  C   UNL     1      -3.610   1.160   0.117  0.00  0.00    +0.047 A 
ATOM     13  N   UNL     1      -2.343   0.803   0.388  0.00  0.00    -0.351 N 
ATOM     14  C   UNL     1      -4.038   2.256  -0.623  0.00  0.00    +0.028 A 
ATOM     15  C   UNL     1      -5.426   2.443  -0.780  0.00  0.00    +0.026 A 
ATOM     16  C   UNL     1      -6.356   1.534  -0.212  0.00  0.00    +0.048 A 
ATOM     17  C   UNL     1      -5.876   0.433   0.540  0.00  0.00    +0.034 A 
ATOM     18  H   UNL     1      -1.476   1.306   0.095  0.00  0.00    +0.166 HD
BRANCH  16  19
ATOM     19  N   UNL     1      -7.763   1.764  -0.403  0.00  0.00    -0.221 N 
ATOM     20  H   UNL     1      -8.068   2.656  -0.840  0.00  0.00    +0.173 HD
BRANCH  19  21
ATOM     21  S   UNL     1      -9.004   0.603  -0.052  0.00  0.00    +0.040 S 
ATOM     22  C   UNL     1      -8.760  -0.871  -1.027  0.00  0.00    +0.218 C 
ATOM     23  O   UNL     1      -8.999   0.273   1.415  0.00  0.00    -0.155 OA
ATOM     24  O   UNL     1     -10.340   1.198  -0.411  0.00  0.00    -0.155 OA
ENDBRANCH  19  21
ENDBRANCH  16  19
ENDBRANCH   7   9
BRANCH   1  26
ATOM     25  C   UNL     1       4.816   0.271  -0.679  0.00  0.00    +0.068 A 
ATOM     26  C   UNL     1       3.558   0.826  -0.359  0.00  0.00    +0.142 A 
ATOM     27  N   UNL     1       3.382   2.175  -0.396  0.00  0.00    -0.238 NA
ATOM     28  C   UNL     1       4.388   3.025  -0.728  0.00  0.00    +0.113 A 
ATOM     29  C   UNL     1       5.646   2.523  -1.047  0.00  0.00    +0.022 A 
ATOM     30  C   UNL     1       5.858   1.145  -1.029  0.00  0.00    +0.028 A 
BRANCH  25  31
ATOM     31  N   UNL     1       4.981  -1.160  -0.742  0.00  0.00    -0.339 N 
ATOM     32  H   UNL     1       4.144  -1.724  -1.012  0.00  0.00    +0.146 HD
BRANCH  31  34
ATOM     33  C   UNL     1       7.201  -2.095  -1.319  0.00  0.00    +0.027 C 
ATOM     34  C   UNL     1       6.132  -1.921  -0.238  0.00  0.00    +0.064 C 
ATOM     35  C   UNL     1       6.704  -1.327   1.051  0.00  0.00    +0.027 C 
ENDBRANCH  31  34
ENDBRANCH  25  31
ENDBRANCH   1  26
TORSDOF 6
