REMARK  Name = 
REMARK  1 active torsions:
REMARK  status: ('A' for Active; 'I' for Inactive)
REMARK    1  A    between atoms: C_11  and  C_12
REMARK                            x       y       z     vdW  Elec       q    Type
REMARK                         _______ _______ _______ _____ _____    ______ ____
ROOT
ATOM      1 CL   UNL     1      -1.688   4.207   0.518  0.00  0.00    -0.084 Cl
ATOM      2  C   UNL     1      -1.860   2.492   0.191  0.00  0.00    +0.042 A 
ATOM      3  C   UNL     1      -0.802   1.621   0.460  0.00  0.00    +0.032 A 
ATOM      4  C   UNL     1      -0.919   0.241   0.202  0.00  0.00    +0.023 A 
ATOM      5  C   UNL     1      -2.142  -0.259  -0.324  0.00  0.00    +0.043 A 
ATOM      6  N   UNL     1      -2.346  -1.651  -0.620  0.00  0.00    -0.283 N 
ATOM      7  C   UNL     1      -1.904  -2.711   0.234  0.00  0.00    +0.239 C 
ATOM      8  O   UNL     1      -2.235  -3.899  -0.025  0.00  0.00    -0.273 OA
ATOM      9  C   UNL     1      -1.052  -2.424   1.424  0.00  0.00    +0.238 C 
ATOM     10  N   UNL     1       0.186  -1.800   0.982  0.00  0.00    -0.273 NA
ATOM     11  C   UNL     1       0.278  -0.623   0.433  0.00  0.00    +0.076 C 
ATOM     12  C   UNL     1      -3.185   0.638  -0.609  0.00  0.00    +0.025 A 
ATOM     13  C   UNL     1      -3.047   2.001  -0.348  0.00  0.00    +0.022 A 
ATOM     14  H   UNL     1      -3.009  -1.900  -1.389  0.00  0.00    +0.155 HD
ENDROOT
BRANCH  11  15
ATOM     15  C   UNL     1       1.621  -0.137   0.027  0.00  0.00    +0.019 A 
ATOM     16  C   UNL     1       1.779   0.450  -1.242  0.00  0.00    +0.011 A 
ATOM     17  C   UNL     1       3.031   0.906  -1.663  0.00  0.00    +0.001 A 
ATOM     18  C   UNL     1       4.138   0.783  -0.824  0.00  0.00    +0.001 A 
ATOM     19  C   UNL     1       3.997   0.208   0.441  0.00  0.00    +0.020 A 
ATOM     20  C   UNL     1       2.748  -0.252   0.875  0.00  0.00    +0.050 A 
ATOM     21 CL   UNL     1       2.630  -0.901   2.508  0.00  0.00    -0.083 Cl
ENDBRANCH  11  15
TORSDOF 1
