REMARK  Name = 
REMARK  9 active torsions:
REMARK  status: ('A' for Active; 'I' for Inactive)
REMARK    1  A    between atoms: C_4  and  N_5
REMARK    2  A    between atoms: N_5  and  C_6
REMARK    3  A    between atoms: N_5  and  C_7
REMARK    4  A    between atoms: C_8  and  O_9
REMARK    5  A    between atoms: C_10  and  C_11
REMARK    6  A    between atoms: C_16  and  O_17
REMARK    7  A    between atoms: C_18  and  O_19
REMARK    8  A    between atoms: C_25  and  O_26
REMARK    9  A    between atoms: C_31  and  O_32
REMARK                            x       y       z     vdW  Elec       q    Type
REMARK                         _______ _______ _______ _____ _____    ______ ____
ROOT
ATOM      1  C   UNL     1       1.451  -0.674  -0.259  0.00  0.00    +0.060 C 
ATOM      2  C   UNL     1       0.050  -1.271  -0.105  0.00  0.00    +0.020 C 
ATOM      3  C   UNL     1      -1.032  -0.384  -0.764  0.00  0.00    +0.061 C 
ATOM      4  C   UNL     1      -2.457  -0.874  -0.284  0.00  0.00    +0.129 C 
ATOM      5  C   UNL     1      -3.080  -0.007   0.790  0.00  0.00    +0.127 C 
ATOM      6  C   UNL     1      -2.898   1.321   0.806  0.00  0.00    +0.121 C 
ATOM      7  C   UNL     1      -1.971   1.926  -0.159  0.00  0.00    +0.211 C 
ATOM      8  O   UNL     1      -2.191   3.098  -0.576  0.00  0.00    -0.288 OA
ATOM      9  C   UNL     1      -0.737   1.176  -0.619  0.00  0.00    +0.190 C 
ATOM     10  C   UNL     1       0.427   1.496   0.335  0.00  0.00    +0.141 C 
ATOM     11  C   UNL     1       1.477   0.654   0.454  0.00  0.00    +0.046 C 
ATOM     12  C   UNL     1       2.731   1.048   1.143  0.00  0.00    +0.197 C 
ATOM     13  O   UNL     1       2.717   1.903   2.068  0.00  0.00    -0.287 OA
ATOM     14  C   UNL     1       3.988   0.350   0.783  0.00  0.00    +0.070 A 
ATOM     15  C   UNL     1       3.897  -0.989   0.333  0.00  0.00    +0.014 A 
ATOM     16  C   UNL     1       2.534  -1.654   0.274  0.00  0.00    +0.154 C 
ATOM     17  C   UNL     1       5.080  -1.720   0.082  0.00  0.00    +0.048 A 
ATOM     18 CL   UNL     1       5.056  -3.421  -0.377  0.00  0.00    -0.083 Cl
ATOM     19  C   UNL     1       6.324  -1.104   0.226  0.00  0.00    +0.024 A 
ATOM     20  C   UNL     1       6.411   0.230   0.614  0.00  0.00    +0.047 A 
ATOM     21  C   UNL     1       5.258   0.973   0.875  0.00  0.00    +0.128 A 
ENDROOT
BRANCH   6  22
ATOM     22  C   UNL     1      -3.606   2.199   1.768  0.00  0.00    +0.248 C 
ATOM     23  N   UNL     1      -4.976   1.977   2.110  0.00  0.00    -0.325 N 
ATOM     24  O   UNL     1      -3.001   3.187   2.265  0.00  0.00    -0.270 OA
ATOM     25  H   UNL     1      -5.441   2.579   2.825  0.00  0.00    +0.145 HD
ATOM     26  H   UNL     1      -5.556   1.280   1.593  0.00  0.00    +0.145 HD
ENDBRANCH   6  22
BRANCH   4  27
ATOM     27  N   UNL     1      -3.442  -1.126  -1.372  0.00  0.00    -0.299 NA
ATOM     28  C   UNL     1      -3.155  -2.362  -2.120  0.00  0.00    +0.105 C 
ATOM     29  C   UNL     1      -3.667  -0.001  -2.294  0.00  0.00    +0.105 C 
ENDBRANCH   4  27
BRANCH   5  30
ATOM     30  O   UNL     1      -3.889  -0.611   1.754  0.00  0.00    -0.509 OA
ATOM     31  H   UNL     1      -4.072  -1.607   1.747  0.00  0.00    +0.292 HD
ENDBRANCH   5  30
BRANCH   9  32
ATOM     32  O   UNL     1      -0.335   1.680  -1.874  0.00  0.00    -0.373 OA
ATOM     33  H   UNL     1      -1.100   1.614  -2.502  0.00  0.00    +0.211 HD
ENDBRANCH   9  32
BRANCH  10  34
ATOM     34  O   UNL     1       0.490   2.735   0.984  0.00  0.00    -0.507 OA
ATOM     35  H   UNL     1      -0.191   3.471   0.859  0.00  0.00    +0.292 HD
ENDBRANCH  10  34
BRANCH  16  36
ATOM     36  O   UNL     1       2.213  -2.101   1.569  0.00  0.00    -0.387 OA
ATOM     37  H   UNL     1       1.741  -2.969   1.474  0.00  0.00    +0.210 HD
ENDBRANCH  16  36
BRANCH  21  38
ATOM     38  O   UNL     1       5.415   2.325   1.189  0.00  0.00    -0.506 OA
ATOM     39  H   UNL     1       4.651   2.985   1.218  0.00  0.00    +0.292 HD
ENDBRANCH  21  38
TORSDOF 7
