REMARK  Name = 
REMARK  25 active torsions:
REMARK  status: ('A' for Active; 'I' for Inactive)
REMARK    1  A    between atoms: C_1  and  N_2
REMARK    2  A    between atoms: N_2  and  C_3
REMARK    3  A    between atoms: C_3  and  C_4
REMARK    4  A    between atoms: C_4  and  C_5
REMARK    5  A    between atoms: C_5  and  C_6
REMARK    6  A    between atoms: C_6  and  C_7
REMARK    7  A    between atoms: C_7  and  C_8
REMARK    8  A    between atoms: C_8  and  C_9
REMARK    9  A    between atoms: C_9  and  C_10
REMARK   10  A    between atoms: C_10  and  C_11
REMARK   11  A    between atoms: C_11  and  C_12
REMARK   12  A    between atoms: C_12  and  N_13
REMARK   13  A    between atoms: N_13  and  C_14
REMARK   14  A    between atoms: C_15  and  O_17
REMARK   15  A    between atoms: O_17  and  C_18
REMARK   16  A    between atoms: C_22  and  N_24
REMARK   17  A    between atoms: N_24  and  C_25
REMARK   18  A    between atoms: N_24  and  C_26
REMARK   19  A    between atoms: N_24  and  C_27
REMARK   20  A    between atoms: C_28  and  O_30
REMARK   21  A    between atoms: O_30  and  C_31
REMARK   22  A    between atoms: C_35  and  N_37
REMARK   23  A    between atoms: N_37  and  C_38
REMARK   24  A    between atoms: N_37  and  C_39
REMARK   25  A    between atoms: N_37  and  C_40
REMARK                            x       y       z     vdW  Elec       q    Type
REMARK                         _______ _______ _______ _____ _____    ______ ____
ROOT
ATOM      1  C   UNL     1       0.357   2.460  -2.813  0.00  0.00    +0.000 C 
ENDROOT
BRANCH   1   2
ATOM      2  C   UNL     1       1.571   2.982  -2.036  0.00  0.00    +0.000 C 
BRANCH   2   3
ATOM      3  C   UNL     1       2.893   2.301  -2.434  0.00  0.00    +0.002 C 
BRANCH   3   4
ATOM      4  C   UNL     1       2.959   0.791  -2.142  0.00  0.00    +0.019 C 
BRANCH   4   5
ATOM      5  C   UNL     1       2.761   0.405  -0.664  0.00  0.00    +0.111 C 
BRANCH   5   7
ATOM      6  C   UNL     1       3.073   2.055   1.255  0.00  0.00    +0.135 C 
ATOM      7  N   UNL     1       3.644   1.162   0.239  0.00  0.00    -0.270 N 
ATOM      8  C   UNL     1       5.067   0.928   0.243  0.00  0.00    +0.408 C 
ATOM      9  O   UNL     1       5.803   1.542   1.068  0.00  0.00    -0.226 OA
BRANCH   8  10
ATOM     10  O   UNL     1       5.643   0.059  -0.690  0.00  0.00    -0.411 OA
BRANCH  10  11
ATOM     11  C   UNL     1       6.949  -0.440  -0.601  0.00  0.00    +0.135 A 
ATOM     12  C   UNL     1       7.679  -0.630  -1.770  0.00  0.00    +0.046 A 
ATOM     13  C   UNL     1       8.987  -1.103  -1.708  0.00  0.00    +0.005 A 
ATOM     14  C   UNL     1       9.578  -1.402  -0.482  0.00  0.00    +0.022 A 
ATOM     15  C   UNL     1       8.863  -1.244   0.737  0.00  0.00    +0.019 A 
ATOM     16  C   UNL     1       7.519  -0.793   0.635  0.00  0.00    +0.068 A 
BRANCH  15  17
ATOM     17  N   UNL     1       9.417  -1.688   2.034  0.00  0.00    -0.390 NA
ATOM     18  C   UNL     1       9.011  -0.777   3.139  0.00  0.00    +0.109 C 
ATOM     19  C   UNL     1      10.905  -1.729   2.034  0.00  0.00    +0.109 C 
ATOM     20  C   UNL     1       8.909  -3.047   2.318  0.00  0.00    +0.109 C 
ENDBRANCH  15  17
ENDBRANCH  10  11
ENDBRANCH   8  10
ENDBRANCH   5   7
ENDBRANCH   4   5
ENDBRANCH   3   4
ENDBRANCH   2   3
ENDBRANCH   1   2
BRANCH   1  21
ATOM     21  C   UNL     1      -0.907   3.238  -2.416  0.00  0.00    +0.000 C 
BRANCH  21  22
ATOM     22  C   UNL     1      -2.146   2.847  -3.240  0.00  0.00    +0.000 C 
BRANCH  22  23
ATOM     23  C   UNL     1      -2.542   1.362  -3.156  0.00  0.00    +0.002 C 
BRANCH  23  24
ATOM     24  C   UNL     1      -2.763   0.868  -1.718  0.00  0.00    +0.019 C 
BRANCH  24  25
ATOM     25  C   UNL     1      -3.375  -0.536  -1.709  0.00  0.00    +0.111 C 
BRANCH  25  26
ATOM     26  N   UNL     1      -3.362  -1.099  -0.354  0.00  0.00    -0.270 N 
ATOM     27  C   UNL     1      -2.246  -1.939   0.086  0.00  0.00    +0.135 C 
ATOM     28  C   UNL     1      -4.451  -0.834   0.543  0.00  0.00    +0.408 C 
ATOM     29  O   UNL     1      -4.670  -1.613   1.516  0.00  0.00    -0.226 OA
BRANCH  28  30
ATOM     30  O   UNL     1      -5.242   0.303   0.365  0.00  0.00    -0.411 OA
BRANCH  30  31
ATOM     31  C   UNL     1      -6.521   0.447   0.914  0.00  0.00    +0.135 A 
ATOM     32  C   UNL     1      -6.873   1.662   1.503  0.00  0.00    +0.046 A 
ATOM     33  C   UNL     1      -8.130   1.820   2.080  0.00  0.00    +0.005 A 
ATOM     34  C   UNL     1      -9.063   0.779   2.034  0.00  0.00    +0.022 A 
ATOM     35  C   UNL     1      -8.771  -0.446   1.374  0.00  0.00    +0.019 A 
ATOM     36  C   UNL     1      -7.456  -0.600   0.854  0.00  0.00    +0.068 A 
BRANCH  35  37
ATOM     37  N   UNL     1      -9.781  -1.522   1.311  0.00  0.00    -0.390 NA
ATOM     38  C   UNL     1      -9.415  -2.610   0.362  0.00  0.00    +0.109 C 
ATOM     39  C   UNL     1      -9.932  -2.118   2.658  0.00  0.00    +0.109 C 
ATOM     40  C   UNL     1     -11.090  -0.975   0.863  0.00  0.00    +0.109 C 
ENDBRANCH  35  37
ENDBRANCH  30  31
ENDBRANCH  28  30
ENDBRANCH  25  26
ENDBRANCH  24  25
ENDBRANCH  23  24
ENDBRANCH  22  23
ENDBRANCH  21  22
ENDBRANCH   1  21
TORSDOF 17
