REMARK  Name = 
REMARK  14 active torsions:
REMARK  status: ('A' for Active; 'I' for Inactive)
REMARK    1  A    between atoms: C_3  and  O_4
REMARK    2  A    between atoms: O_4  and  C_5
REMARK    3  A    between atoms: C_5  and  C_7
REMARK    4  A    between atoms: C_9  and  O_10
REMARK    5  A    between atoms: O_10  and  C_11
REMARK    6  A    between atoms: C_12  and  O_13
REMARK    7  A    between atoms: O_13  and  C_14
REMARK    8  A    between atoms: C_15  and  O_16
REMARK    9  A    between atoms: O_16  and  C_17
REMARK   10  A    between atoms: C_19  and  O_20
REMARK   11  A    between atoms: O_20  and  C_21
REMARK   12  A    between atoms: C_22  and  C_23
REMARK   13  A    between atoms: C_23  and  O_25
REMARK   14  A    between atoms: O_25  and  C_26
REMARK                            x       y       z     vdW  Elec       q    Type
REMARK                         _______ _______ _______ _____ _____    ______ ____
ROOT
ATOM      1  C   UNL     1      -1.138   1.408  -0.711  0.00  0.00    +0.011 C 
ATOM      2  C   UNL     1       0.394   1.562  -0.498  0.00  0.00    +0.052 C 
ATOM      3  C   UNL     1       1.209   0.372  -1.028  0.00  0.00    +0.206 C 
ATOM      4  C   UNL     1       0.702  -0.920  -0.361  0.00  0.00    +0.172 C 
ATOM      5  C   UNL     1      -0.791  -1.204  -0.718  0.00  0.00    +0.133 C 
ATOM      6  C   UNL     1      -1.557   0.035  -1.304  0.00  0.00    +0.012 C 
ATOM      7  C   UNL     1      -3.098  -0.113  -1.373  0.00  0.00    +0.030 C 
ATOM      8  C   UNL     1      -3.804   0.337  -0.079  0.00  0.00    +0.104 C 
ATOM      9  N   UNL     1      -3.376   1.712   0.286  0.00  0.00    -0.293 NA
ATOM     10  C   UNL     1      -4.135   2.219   1.454  0.00  0.00    +0.090 C 
ATOM     11  C   UNL     1      -5.615   2.433   1.087  0.00  0.00    +0.053 C 
ATOM     12  C   UNL     1      -6.122   1.240   0.341  0.00  0.00    -0.016 A 
ATOM     13  C   UNL     1      -5.300   0.301  -0.251  0.00  0.00    +0.038 A 
ATOM     14  N   UNL     1      -6.024  -0.727  -0.751  0.00  0.00    -0.356 N 
ATOM     15  C   UNL     1      -7.310  -0.412  -0.505  0.00  0.00    +0.047 A 
ATOM     16  C   UNL     1      -8.433  -1.187  -0.780  0.00  0.00    +0.026 A 
ATOM     17  C   UNL     1      -9.687  -0.699  -0.366  0.00  0.00    +0.002 A 
ATOM     18  C   UNL     1      -9.785   0.538   0.313  0.00  0.00    +0.001 A 
ATOM     19  C   UNL     1      -8.634   1.298   0.584  0.00  0.00    +0.010 A 
ATOM     20  C   UNL     1      -7.410   0.788   0.160  0.00  0.00    +0.003 A 
ATOM     21  C   UNL     1      -1.928   1.740   0.566  0.00  0.00    +0.089 C 
ATOM     22  H   UNL     1      -5.666  -1.609  -1.178  0.00  0.00    +0.166 HD
ENDROOT
BRANCH   4  23
ATOM     23  O   UNL     1       1.500  -2.012  -0.799  0.00  0.00    -0.375 OA
ATOM     24  C   UNL     1       1.963  -2.773   0.298  0.00  0.00    +0.194 C 
ENDBRANCH   4  23
BRANCH   5  25
ATOM     25  C   UNL     1      -1.497  -1.892   0.426  0.00  0.00    +0.313 C 
ATOM     26  O   UNL     1      -1.384  -1.462   1.608  0.00  0.00    -0.250 OA
BRANCH  25  27
ATOM     27  O   UNL     1      -2.307  -2.999   0.156  0.00  0.00    -0.468 OA
ATOM     28  C   UNL     1      -3.035  -3.679   1.173  0.00  0.00    +0.280 C 
ENDBRANCH  25  27
ENDBRANCH   5  25
BRANCH   3  29
ATOM     29  O   UNL     1       2.588   0.581  -0.706  0.00  0.00    -0.455 OA
BRANCH  29  30
ATOM     30  C   UNL     1       3.649   0.017  -1.429  0.00  0.00    +0.340 C 
ATOM     31  O   UNL     1       3.419  -0.633  -2.488  0.00  0.00    -0.245 OA
BRANCH  30  32
ATOM     32  C   UNL     1       5.040   0.191  -0.953  0.00  0.00    +0.066 A 
ATOM     33  C   UNL     1       6.122  -0.267  -1.720  0.00  0.00    +0.064 A 
ATOM     34  C   UNL     1       7.443  -0.096  -1.271  0.00  0.00    +0.166 A 
ATOM     35  C   UNL     1       7.687   0.527  -0.038  0.00  0.00    +0.204 A 
ATOM     36  C   UNL     1       6.609   1.004   0.738  0.00  0.00    +0.166 A 
ATOM     37  C   UNL     1       5.292   0.822   0.274  0.00  0.00    +0.064 A 
BRANCH  34  38
ATOM     38  O   UNL     1       8.544  -0.545  -2.016  0.00  0.00    -0.491 OA
ATOM     39  C   UNL     1       8.453  -1.250  -3.251  0.00  0.00    +0.277 C 
ENDBRANCH  34  38
BRANCH  35  40
ATOM     40  O   UNL     1       9.021   0.674   0.370  0.00  0.00    -0.488 OA
ATOM     41  C   UNL     1       9.499   0.320   1.666  0.00  0.00    +0.277 C 
ENDBRANCH  35  40
BRANCH  36  42
ATOM     42  O   UNL     1       6.875   1.677   1.940  0.00  0.00    -0.491 OA
ATOM     43  C   UNL     1       5.884   2.213   2.811  0.00  0.00    +0.277 C 
ENDBRANCH  36  42
ENDBRANCH  30  32
ENDBRANCH  29  30
ENDBRANCH   3  29
TORSDOF 9
