REMARK  Name = 
REMARK  3 active torsions:
REMARK  status: ('A' for Active; 'I' for Inactive)
REMARK    1  A    between atoms: C_2  and  O_4
REMARK    2  A    between atoms: O_4  and  C_5
REMARK    3  A    between atoms: C_5  and  C_7
REMARK                            x       y       z     vdW  Elec       q    Type
REMARK                         _______ _______ _______ _____ _____    ______ ____
ROOT
ATOM      1  C   UNL     1       0.452   0.063   0.299  0.00  0.00    +0.406 C 
ATOM      2  F   UNL     1       1.043   1.312   0.416  0.00  0.00    -0.205 F 
ENDROOT
BRANCH   1   3
ATOM      3  C   UNL     1       1.518  -0.953  -0.098  0.00  0.00    +0.446 C 
ATOM      4  F   UNL     1       2.080  -0.601  -1.312  0.00  0.00    -0.165 F 
ATOM      5  F   UNL     1       0.949  -2.210  -0.208  0.00  0.00    -0.165 F 
ATOM      6  F   UNL     1       2.509  -0.991   0.866  0.00  0.00    -0.165 F 
ENDBRANCH   1   3
BRANCH   1   7
ATOM      7  O   UNL     1      -0.551   0.098  -0.698  0.00  0.00    -0.280 OA
BRANCH   7   9
ATOM      8  F   UNL     1      -2.518   1.064  -1.286  0.00  0.00    -0.178 F 
ATOM      9  C   UNL     1      -1.695   0.771  -0.217  0.00  0.00    +0.485 C 
ATOM     10  F   UNL     1      -2.390  -0.042   0.662  0.00  0.00    -0.178 F 
ENDBRANCH   7   9
ENDBRANCH   1   7
TORSDOF 3
