REMARK  Name = 
REMARK  5 active torsions:
REMARK  status: ('A' for Active; 'I' for Inactive)
REMARK    1  A    between atoms: C_1  and  N_2
REMARK    2  A    between atoms: N_2  and  C_3
REMARK    3  A    between atoms: C_3  and  C_4
REMARK    4  A    between atoms: C_4  and  C_5
REMARK    5  A    between atoms: C_5  and  N_6
REMARK                            x       y       z     vdW  Elec       q    Type
REMARK                         _______ _______ _______ _____ _____    ______ ____
ROOT
ATOM      1  N   UNL     1      -0.183   0.383   0.328  0.00  0.00    -0.300 N 
ATOM      2  C   UNL     1      -1.282   1.295   0.456  0.00  0.00    +0.037 A 
ATOM      3  C   UNL     1      -1.235   2.339   1.393  0.00  0.00    +0.024 A 
ATOM      4  C   UNL     1      -2.303   3.234   1.500  0.00  0.00    +0.002 A 
ATOM      5  C   UNL     1      -3.419   3.093   0.671  0.00  0.00    +0.000 A 
ATOM      6  C   UNL     1      -3.466   2.060  -0.271  0.00  0.00    +0.005 A 
ATOM      7  C   UNL     1      -2.389   1.166  -0.388  0.00  0.00    -0.026 A 
ATOM      8  C   UNL     1      -2.418   0.037  -1.374  0.00  0.00    +0.042 C 
ATOM      9  C   UNL     1      -2.621  -1.290  -0.645  0.00  0.00    +0.042 C 
ATOM     10  C   UNL     1      -1.466  -1.793   0.212  0.00  0.00    -0.026 A 
ATOM     11  C   UNL     1      -1.553  -3.142   0.608  0.00  0.00    +0.005 A 
ATOM     12  C   UNL     1      -0.582  -3.723   1.421  0.00  0.00    +0.000 A 
ATOM     13  C   UNL     1       0.492  -2.964   1.871  0.00  0.00    +0.002 A 
ATOM     14  C   UNL     1       0.600  -1.624   1.509  0.00  0.00    +0.024 A 
ATOM     15  C   UNL     1      -0.361  -1.011   0.677  0.00  0.00    +0.037 A 
ENDROOT
BRANCH   1  16
ATOM     16  C   UNL     1       1.140   0.926  -0.025  0.00  0.00    +0.112 C 
BRANCH  16  17
ATOM     17  C   UNL     1       1.770   0.134  -1.181  0.00  0.00    +0.034 C 
BRANCH  17  18
ATOM     18  C   UNL     1       3.049   0.789  -1.739  0.00  0.00    +0.082 C 
BRANCH  18  20
ATOM     19  C   UNL     1       4.619  -0.387  -0.277  0.00  0.00    +0.101 C 
ATOM     20  N   UNL     1       4.143   0.911  -0.760  0.00  0.00    -0.319 NA
ATOM     21  H   UNL     1       3.841   1.495   0.053  0.00  0.00    +0.122 HD
ENDBRANCH  18  20
ENDBRANCH  17  18
ENDBRANCH  16  17
ENDBRANCH   1  16
TORSDOF 4
