REMARK  Name = 
REMARK  24 active torsions:
REMARK  status: ('A' for Active; 'I' for Inactive)
REMARK    1  A    between atoms: C_1  and  C_2
REMARK    2  A    between atoms: C_4  and  O_39
REMARK    3  A    between atoms: C_6  and  O_7
REMARK    4  A    between atoms: C_8  and  O_9
REMARK    5  A    between atoms: O_9  and  C_10
REMARK    6  A    between atoms: C_12  and  O_13
REMARK    7  A    between atoms: C_14  and  O_15
REMARK    8  A    between atoms: O_15  and  C_16
REMARK    9  A    between atoms: C_18  and  O_19
REMARK   10  A    between atoms: C_20  and  O_21
REMARK   11  A    between atoms: O_21  and  C_22
REMARK   12  A    between atoms: C_24  and  C_25
REMARK   13  A    between atoms: C_25  and  O_26
REMARK   14  A    between atoms: C_27  and  O_28
REMARK   15  A    between atoms: C_29  and  O_30
REMARK   16  A    between atoms: C_31  and  O_32
REMARK   17  A    between atoms: C_33  and  C_34
REMARK   18  A    between atoms: C_36  and  C_37
REMARK   19  A    between atoms: O_39  and  C_40
REMARK   20  A    between atoms: C_43  and  C_44
REMARK   21  A    between atoms: C_51  and  O_52
REMARK   22  A    between atoms: C_53  and  C_54
REMARK   23  A    between atoms: C_55  and  C_60
REMARK   24  A    between atoms: C_58  and  O_59
REMARK                            x       y       z     vdW  Elec       q    Type
REMARK                         _______ _______ _______ _____ _____    ______ ____
ROOT
ATOM      1  C   UNL     1      -0.195  -2.421  -2.102  0.00  0.00    +0.041 C 
ATOM      2  C   UNL     1       0.234  -1.390  -1.059  0.00  0.00    +0.150 C 
ATOM      3  O   UNL     1       1.585  -1.044  -1.312  0.00  0.00    -0.346 OA
ATOM      4  C   UNL     1       2.130  -0.277  -0.243  0.00  0.00    +0.253 C 
ATOM      5  C   UNL     1       1.234   0.933   0.130  0.00  0.00    +0.095 C 
ATOM      6  C   UNL     1       0.156   1.155  -0.932  0.00  0.00    +0.151 C 
ATOM      7  C   UNL     1      -0.687  -0.127  -1.101  0.00  0.00    +0.178 C 
ENDROOT
BRANCH   6   8
ATOM      8  O   UNL     1      -0.652   2.243  -0.560  0.00  0.00    -0.389 OA
ATOM      9  H   UNL     1      -1.188   2.484  -1.361  0.00  0.00    +0.210 HD
ENDBRANCH   6   8
BRANCH   7  10
ATOM     10  O   UNL     1      -1.624  -0.203  -0.032  0.00  0.00    -0.343 OA
BRANCH  10  11
ATOM     11  C   UNL     1      -2.937  -0.474  -0.485  0.00  0.00    +0.254 C 
ATOM     12  C   UNL     1      -3.769  -0.960   0.727  0.00  0.00    +0.095 C 
ATOM     13  C   UNL     1      -4.756   0.124   1.173  0.00  0.00    +0.151 C 
ATOM     14  C   UNL     1      -5.674   0.524  -0.007  0.00  0.00    +0.178 C 
ATOM     15  C   UNL     1      -4.858   0.560  -1.334  0.00  0.00    +0.150 C 
ATOM     16  C   UNL     1      -5.315   1.704  -2.236  0.00  0.00    +0.041 C 
ATOM     17  O   UNL     1      -3.471   0.712  -1.067  0.00  0.00    -0.346 OA
BRANCH  13  18
ATOM     18  O   UNL     1      -5.513  -0.340   2.261  0.00  0.00    -0.389 OA
ATOM     19  H   UNL     1      -5.908   0.461   2.696  0.00  0.00    +0.210 HD
ENDBRANCH  13  18
BRANCH  14  20
ATOM     20  O   UNL     1      -6.713  -0.436  -0.147  0.00  0.00    -0.343 OA
BRANCH  20  21
ATOM     21  C   UNL     1      -8.001   0.145  -0.073  0.00  0.00    +0.254 C 
ATOM     22  C   UNL     1      -9.011  -0.838  -0.710  0.00  0.00    +0.095 C 
ATOM     23  C   UNL     1     -10.103  -1.256   0.277  0.00  0.00    +0.151 C 
ATOM     24  C   UNL     1     -10.718  -0.016   0.950  0.00  0.00    +0.178 C 
ATOM     25  C   UNL     1      -9.600   0.974   1.409  0.00  0.00    +0.150 C 
ATOM     26  C   UNL     1      -9.801   1.397   2.862  0.00  0.00    +0.041 C 
ATOM     27  O   UNL     1      -8.310   0.398   1.288  0.00  0.00    -0.346 OA
BRANCH  23  28
ATOM     28  O   UNL     1     -11.086  -1.996  -0.399  0.00  0.00    -0.389 OA
ATOM     29  H   UNL     1     -11.617  -2.465   0.298  0.00  0.00    +0.210 HD
ENDBRANCH  23  28
BRANCH  24  30
ATOM     30  O   UNL     1     -11.556   0.641   0.009  0.00  0.00    -0.340 OA
BRANCH  30  31
ATOM     31  C   UNL     1     -12.827   0.948   0.547  0.00  0.00    +0.282 C 
ATOM     32  O   UNL     1     -13.566  -0.264   0.691  0.00  0.00    -0.341 OA
ATOM     33  C   UNL     1     -14.927   0.004   0.960  0.00  0.00    +0.178 C 
ATOM     34  C   UNL     1     -15.629   0.501  -0.331  0.00  0.00    +0.177 C 
ATOM     35  C   UNL     1     -14.649   1.302  -1.234  0.00  0.00    +0.179 C 
ATOM     36  C   UNL     1     -13.524   1.969  -0.406  0.00  0.00    +0.201 C 
BRANCH  34  37
ATOM     37  O   UNL     1     -16.728   1.303   0.026  0.00  0.00    -0.386 OA
ATOM     38  H   UNL     1     -17.323   1.348  -0.770  0.00  0.00    +0.210 HD
ENDBRANCH  34  37
BRANCH  35  39
ATOM     39  O   UNL     1     -14.105   0.484  -2.240  0.00  0.00    -0.386 OA
ATOM     40  H   UNL     1     -13.622  -0.267  -1.808  0.00  0.00    +0.210 HD
ENDBRANCH  35  39
BRANCH  36  41
ATOM     41  O   UNL     1     -14.062   3.018   0.360  0.00  0.00    -0.384 OA
ATOM     42  H   UNL     1     -14.238   3.768  -0.263  0.00  0.00    +0.210 HD
ENDBRANCH  36  41
BRANCH  33  43
ATOM     43  C   UNL     1     -15.595  -1.272   1.490  0.00  0.00    +0.190 C 
BRANCH  43  44
ATOM     44  O   UNL     1     -15.010  -1.671   2.703  0.00  0.00    -0.392 OA
ATOM     45  H   UNL     1     -14.201  -2.196   2.468  0.00  0.00    +0.210 HD
ENDBRANCH  43  44
ENDBRANCH  33  43
ENDBRANCH  30  31
ENDBRANCH  24  30
ENDBRANCH  20  21
ENDBRANCH  14  20
ENDBRANCH  10  11
ENDBRANCH   7  10
BRANCH   4  46
ATOM     46  O   UNL     1       3.391   0.222  -0.654  0.00  0.00    -0.348 OA
BRANCH  46  47
ATOM     47  C   UNL     1       4.429  -0.726  -0.468  0.00  0.00    +0.122 C 
ATOM     48  C   UNL     1       5.460  -0.521  -1.594  0.00  0.00    +0.032 C 
ATOM     49  C   UNL     1       6.329   0.712  -1.333  0.00  0.00    +0.010 C 
ATOM     50  C   UNL     1       7.179   0.616  -0.006  0.00  0.00    -0.026 C 
ATOM     51  C   UNL     1       6.994   1.983   0.736  0.00  0.00    +0.012 C 
ATOM     52  C   UNL     1       6.591  -0.494   0.973  0.00  0.00    -0.002 C 
ATOM     53  C   UNL     1       7.150  -1.931   0.826  0.00  0.00    +0.004 C 
ATOM     54  C   UNL     1       8.579  -2.035   0.289  0.00  0.00    +0.007 C 
ATOM     55  C   UNL     1       9.393  -0.742   0.494  0.00  0.00    +0.025 C 
ATOM     56  C   UNL     1       8.723   0.363  -0.373  0.00  0.00    +0.003 C 
ATOM     57  C   UNL     1       9.587   1.645  -0.401  0.00  0.00    +0.036 C 
ATOM     58  C   UNL     1      11.024   1.365  -0.849  0.00  0.00    +0.124 C 
ATOM     59  C   UNL     1      11.770   0.334   0.072  0.00  0.00    +0.029 C 
ATOM     60  C   UNL     1      12.073   0.967   1.468  0.00  0.00    +0.017 C 
ATOM     61  C   UNL     1      13.065  -0.131  -0.689  0.00  0.00    +0.030 C 
ATOM     62  C   UNL     1      12.652  -1.362  -1.523  0.00  0.00    +0.011 C 
ATOM     63  C   UNL     1      11.221  -1.723  -1.118  0.00  0.00    +0.036 C 
ATOM     64  C   UNL     1      10.930  -0.977   0.208  0.00  0.00    +0.077 C 
ATOM     65  C   UNL     1       5.039  -0.546   0.950  0.00  0.00    +0.035 C 
BRANCH  61  66
ATOM     66  C   UNL     1      14.289  -0.404   0.182  0.00  0.00    -0.022 C 
ATOM     67  C   UNL     1      14.483  -1.470   0.959  0.00  0.00    +0.094 C 
ATOM     68  C   UNL     1      15.714  -1.248   1.669  0.00  0.00    +0.332 C 
ATOM     69  O   UNL     1      16.201  -2.015   2.538  0.00  0.00    -0.246 OA
ATOM     70  O   UNL     1      16.272  -0.041   1.298  0.00  0.00    -0.457 OA
ATOM     71  C   UNL     1      15.436   0.568   0.326  0.00  0.00    +0.264 C 
ENDBRANCH  61  66
BRANCH  58  72
ATOM     72  O   UNL     1      11.753   2.565  -0.985  0.00  0.00    -0.391 OA
ATOM     73  H   UNL     1      11.618   3.112  -0.166  0.00  0.00    +0.210 HD
ENDBRANCH  58  72
BRANCH  64  74
ATOM     74  O   UNL     1      11.469  -1.723   1.282  0.00  0.00    -0.388 OA
ATOM     75  H   UNL     1      11.133  -2.655   1.251  0.00  0.00    +0.210 HD
ENDBRANCH  64  74
ENDBRANCH  46  47
ENDBRANCH   4  46
TORSDOF 19
