REMARK  Name = 
REMARK  0 active torsions:
REMARK  status: ('A' for Active; 'I' for Inactive)
REMARK                            x       y       z     vdW  Elec       q    Type
REMARK                         _______ _______ _______ _____ _____    ______ ____
ROOT
ATOM      1 CL   UNL     1      -4.167  -3.592   2.330  0.00  0.00    -0.084 Cl
ATOM      2  C   UNL     1      -2.917  -2.632   1.559  0.00  0.00    +0.041 A 
ATOM      3  C   UNL     1      -2.928  -1.239   1.685  0.00  0.00    +0.024 A 
ATOM      4  C   UNL     1      -1.926  -0.467   1.074  0.00  0.00    -0.038 A 
ATOM      5  C   UNL     1      -0.925  -1.099   0.323  0.00  0.00    -0.013 A 
ATOM      6  C   UNL     1      -0.923  -2.496   0.191  0.00  0.00    +0.010 A 
ATOM      7  C   UNL     1      -1.915  -3.259   0.813  0.00  0.00    +0.020 A 
ATOM      8  C   UNL     1       0.111  -0.281  -0.338  0.00  0.00    +0.007 C 
ATOM      9  C   UNL     1       1.404  -0.288   0.097  0.00  0.00    -0.057 C 
ATOM     10  C   UNL     1       2.467   0.546  -0.592  0.00  0.00    +0.046 C 
ATOM     11  C   UNL     1       3.779   0.548   0.193  0.00  0.00    +0.085 C 
ATOM     12  N   UNL     1       3.489   0.776   1.609  0.00  0.00    -0.315 NA
ATOM     13  C   UNL     1       2.824  -0.387   2.223  0.00  0.00    +0.085 C 
ATOM     14  C   UNL     1       1.854  -1.136   1.277  0.00  0.00    +0.046 C 
ATOM     15  C   UNL     1      -0.343   0.585  -1.458  0.00  0.00    +0.075 A 
ATOM     16  C   UNL     1      -1.470   1.459  -1.374  0.00  0.00    -0.021 A 
ATOM     17  C   UNL     1      -2.390   1.641  -0.171  0.00  0.00    +0.042 C 
ATOM     18  C   UNL     1      -1.944   1.034   1.162  0.00  0.00    +0.040 C 
ATOM     19  C   UNL     1      -1.810   2.202  -2.519  0.00  0.00    +0.007 A 
ATOM     20  C   UNL     1      -1.071   2.090  -3.694  0.00  0.00    +0.020 A 
ATOM     21  C   UNL     1       0.012   1.220  -3.734  0.00  0.00    +0.111 A 
ATOM     22  N   UNL     1       0.340   0.497  -2.635  0.00  0.00    -0.255 NA
ATOM     23  H   UNL     1       4.396   0.935   2.107  0.00  0.00    +0.122 HD
ENDROOT
TORSDOF 0
