REMARK  Name = 
REMARK  20 active torsions:
REMARK  status: ('A' for Active; 'I' for Inactive)
REMARK    1  A    between atoms: C_2  and  C_4
REMARK    2  A    between atoms: C_4  and  C_5
REMARK    3  A    between atoms: C_5  and  C_6
REMARK    4  A    between atoms: C_10  and  C_11
REMARK    5  A    between atoms: C_11  and  C_12
REMARK    6  A    between atoms: C_21  and  C_22
REMARK    7  A    between atoms: C_22  and  C_23
REMARK    8  A    between atoms: C_26  and  O_27
REMARK    9  A    between atoms: C_38  and  C_50
REMARK   10  A    between atoms: C_42  and  C_43
REMARK   11  A    between atoms: C_43  and  C_44
REMARK   12  A    between atoms: C_56  and  C_57
REMARK   13  A    between atoms: N_59  and  C_60
REMARK   14  A    between atoms: C_60  and  C_61
REMARK   15  A    between atoms: C_60  and  C_68
REMARK   16  A    between atoms: C_61  and  C_62
REMARK   17  A    between atoms: C_62  and  C_63
REMARK   18  A    between atoms: C_63  and  N_64
REMARK   19  A    between atoms: N_70  and  C_71
REMARK   20  A    between atoms: C_71  and  C_72
REMARK                            x       y       z     vdW  Elec       q    Type
REMARK                         _______ _______ _______ _____ _____    ______ ____
ROOT
ATOM      1  C   UNL     1      -4.933  -4.192   1.549  0.00  0.00    +0.159 C 
ATOM      2  N   UNL     1      -6.019  -3.518   0.820  0.00  0.00    -0.302 N 
ATOM      3  C   UNL     1      -5.865  -2.905  -0.472  0.00  0.00    +0.234 C 
ATOM      4  O   UNL     1      -4.879  -3.201  -1.199  0.00  0.00    -0.274 OA
ATOM      5  C   UNL     1      -6.885  -1.896  -0.945  0.00  0.00    +0.163 C 
ATOM      6  N   UNL     1      -6.859  -0.699  -0.096  0.00  0.00    -0.302 N 
ATOM      7  C   UNL     1      -5.693   0.114   0.113  0.00  0.00    +0.234 C 
ATOM      8  O   UNL     1      -4.567  -0.293  -0.274  0.00  0.00    -0.274 OA
ATOM      9  C   UNL     1      -5.830   1.460   0.784  0.00  0.00    +0.163 C 
ATOM     10  N   UNL     1      -4.514   2.045   1.098  0.00  0.00    -0.304 N 
ATOM     11  C   UNL     1      -3.602   2.576   0.124  0.00  0.00    +0.214 C 
ATOM     12  O   UNL     1      -3.783   2.356  -1.104  0.00  0.00    -0.276 OA
ATOM     13  C   UNL     1      -2.436   3.399   0.606  0.00  0.00    +0.107 C 
ATOM     14  C   UNL     1      -1.644   4.087  -0.515  0.00  0.00    +0.090 C 
ATOM     15  S   UNL     1      -0.694   2.908  -1.546  0.00  0.00    -0.093 S 
ATOM     16  S   UNL     1       0.824   2.541  -0.082  0.00  0.00    -0.091 S 
ATOM     17  C   UNL     1       0.307   0.815   0.239  0.00  0.00    +0.112 C 
ATOM     18  C   UNL     1       0.804  -0.146  -0.856  0.00  0.00    +0.170 C 
ATOM     19  N   UNL     1       0.270  -1.498  -0.683  0.00  0.00    -0.302 N 
ATOM     20  C   UNL     1      -1.137  -1.730  -0.510  0.00  0.00    +0.234 C 
ATOM     21  O   UNL     1      -1.885  -1.689  -1.520  0.00  0.00    -0.274 OA
ATOM     22  C   UNL     1      -1.758  -1.992   0.854  0.00  0.00    +0.168 C 
ATOM     23  N   UNL     1      -2.746  -3.073   0.776  0.00  0.00    -0.302 N 
ATOM     24  C   UNL     1      -3.784  -3.233   1.760  0.00  0.00    +0.234 C 
ATOM     25  O   UNL     1      -3.790  -2.504   2.791  0.00  0.00    -0.274 OA
ATOM     26  H   UNL     1      -6.906  -3.329   1.339  0.00  0.00    +0.150 HD
ATOM     27  H   UNL     1      -7.760  -0.402   0.350  0.00  0.00    +0.150 HD
ATOM     28  H   UNL     1      -4.251   2.119   2.104  0.00  0.00    +0.149 HD
ATOM     29  H   UNL     1       0.762  -2.247  -1.215  0.00  0.00    +0.150 HD
ATOM     30  H   UNL     1      -2.663  -3.758  -0.005  0.00  0.00    +0.150 HD
ENDROOT
BRANCH  18  31
ATOM     31  C   UNL     1       2.321  -0.158  -0.914  0.00  0.00    +0.237 C 
ATOM     32  O   UNL     1       2.898   0.523  -1.811  0.00  0.00    -0.274 OA
ATOM     33  N   UNL     1       3.126  -0.803   0.094  0.00  0.00    -0.288 N 
ATOM     34  C   UNL     1       2.950  -2.174   0.548  0.00  0.00    +0.109 C 
ATOM     35  C   UNL     1       4.061  -2.421   1.560  0.00  0.00    +0.021 C 
ATOM     36  C   UNL     1       4.598  -1.037   1.917  0.00  0.00    +0.033 C 
ATOM     37  C   UNL     1       4.293  -0.174   0.696  0.00  0.00    +0.162 C 
BRANCH  37  38
ATOM     38  C   UNL     1       5.469  -0.189  -0.247  0.00  0.00    +0.234 C 
ATOM     39  O   UNL     1       5.506  -1.002  -1.218  0.00  0.00    -0.274 OA
ATOM     40  N   UNL     1       6.579   0.683  -0.001  0.00  0.00    -0.302 N 
ATOM     41  H   UNL     1       6.352   1.636   0.366  0.00  0.00    +0.150 HD
BRANCH  40  42
ATOM     42  C   UNL     1       7.942   0.149   0.132  0.00  0.00    +0.159 C 
BRANCH  42  43
ATOM     43  C   UNL     1       8.822   1.055   0.968  0.00  0.00    +0.234 C 
ATOM     44  O   UNL     1       8.589   2.295   1.030  0.00  0.00    -0.274 OA
ATOM     45  N   UNL     1       9.991   0.518   1.597  0.00  0.00    -0.305 N 
ATOM     46  H   UNL     1      10.110  -0.519   1.629  0.00  0.00    +0.149 HD
BRANCH  45  47
ATOM     47  C   UNL     1      11.007   1.377   2.205  0.00  0.00    +0.199 C 
BRANCH  47  48
ATOM     48  C   UNL     1      12.336   0.694   2.183  0.00  0.00    +0.228 C 
ATOM     49  N   UNL     1      12.665  -0.274   3.183  0.00  0.00    -0.328 N 
ATOM     50  O   UNL     1      13.141   0.913   1.240  0.00  0.00    -0.274 OA
ATOM     51  H   UNL     1      11.980  -0.520   3.931  0.00  0.00    +0.145 HD
ATOM     52  H   UNL     1      13.581  -0.778   3.147  0.00  0.00    +0.145 HD
ENDBRANCH  47  48
ENDBRANCH  45  47
ENDBRANCH  42  43
BRANCH  42  53
ATOM     53  C   UNL     1       8.590  -0.184  -1.243  0.00  0.00    +0.033 C 
BRANCH  53  54
ATOM     54  C   UNL     1       9.305   0.983  -1.958  0.00  0.00    +0.023 C 
BRANCH  54  55
ATOM     55  C   UNL     1       8.345   1.994  -2.601  0.00  0.00    +0.115 C 
BRANCH  55  56
ATOM     56  N   UNL     1       8.967   3.318  -2.679  0.00  0.00    -0.356 N 
ATOM     57  C   UNL     1      10.184   3.614  -3.390  0.00  0.00    +0.188 C 
ATOM     58  N   UNL     1      10.895   4.815  -3.087  0.00  0.00    -0.370 N 
ATOM     59  N   UNL     1      10.657   2.815  -4.290  0.00  0.00    -0.269 NA
ATOM     60  H   UNL     1       8.551   4.076  -2.091  0.00  0.00    +0.162 HD
ATOM     61  H   UNL     1      11.794   5.043  -3.571  0.00  0.00    +0.159 HD
ATOM     62  H   UNL     1      10.539   5.462  -2.348  0.00  0.00    +0.159 HD
ATOM     63  H   UNL     1      10.194   1.927  -4.577  0.00  0.00    +0.190 HD
ENDBRANCH  55  56
ENDBRANCH  54  55
ENDBRANCH  53  54
ENDBRANCH  42  53
ENDBRANCH  40  42
ENDBRANCH  37  38
ENDBRANCH  18  31
BRANCH   1  64
ATOM     64  C   UNL     1      -4.557  -5.529   0.867  0.00  0.00    +0.041 C 
BRANCH  64  65
ATOM     65  C   UNL     1      -3.460  -6.319   1.604  0.00  0.00    +0.098 C 
BRANCH  65  67
ATOM     66  N   UNL     1      -3.596  -6.101   4.133  0.00  0.00    -0.329 N 
ATOM     67  C   UNL     1      -3.922  -6.814   2.943  0.00  0.00    +0.211 C 
ATOM     68  O   UNL     1      -4.598  -7.877   3.013  0.00  0.00    -0.276 OA
ATOM     69  H   UNL     1      -3.040  -5.216   4.093  0.00  0.00    +0.145 HD
ATOM     70  H   UNL     1      -3.929  -6.442   5.062  0.00  0.00    +0.145 HD
ENDBRANCH  65  67
ENDBRANCH  64  65
ENDBRANCH   1  64
BRANCH   5  71
ATOM     71  C   UNL     1      -6.697  -1.520  -2.428  0.00  0.00    +0.067 C 
BRANCH  71  72
ATOM     72  C   UNL     1      -7.802  -0.621  -2.918  0.00  0.00    -0.045 A 
ATOM     73  C   UNL     1      -7.529   0.686  -3.348  0.00  0.00    +0.004 A 
ATOM     74  C   UNL     1      -8.576   1.521  -3.764  0.00  0.00    +0.000 A 
ATOM     75  C   UNL     1      -9.893   1.052  -3.776  0.00  0.00    +0.000 A 
ATOM     76  C   UNL     1     -10.172  -0.258  -3.380  0.00  0.00    +0.000 A 
ATOM     77  C   UNL     1      -9.126  -1.101  -2.965  0.00  0.00    +0.004 A 
ENDBRANCH  71  72
ENDBRANCH   5  71
BRANCH   9  78
ATOM     78  C   UNL     1      -6.731   2.408  -0.060  0.00  0.00    +0.067 C 
BRANCH  78  79
ATOM     79  C   UNL     1      -6.419   3.880   0.095  0.00  0.00    -0.045 A 
ATOM     80  C   UNL     1      -6.399   4.488   1.365  0.00  0.00    +0.007 A 
ATOM     81  C   UNL     1      -5.999   5.818   1.500  0.00  0.00    +0.045 A 
ATOM     82  C   UNL     1      -5.653   6.572   0.373  0.00  0.00    +0.117 A 
ATOM     83  C   UNL     1      -5.753   6.001  -0.900  0.00  0.00    +0.045 A 
ATOM     84  C   UNL     1      -6.127   4.660  -1.038  0.00  0.00    +0.007 A 
BRANCH  82  85
ATOM     85  O   UNL     1      -5.193   7.878   0.503  0.00  0.00    -0.507 OA
ATOM     86  H   UNL     1      -5.008   8.276   1.413  0.00  0.00    +0.292 HD
ENDBRANCH  82  85
ENDBRANCH  78  79
ENDBRANCH   9  78
BRANCH  22  87
ATOM     87  C   UNL     1      -0.743  -2.273   1.989  0.00  0.00    +0.127 C 
BRANCH  87  88
ATOM     88  C   UNL     1      -0.257  -3.700   2.080  0.00  0.00    +0.213 C 
ATOM     89  N   UNL     1       0.047  -4.482   0.921  0.00  0.00    -0.329 N 
ATOM     90  O   UNL     1      -0.057  -4.197   3.218  0.00  0.00    -0.276 OA
ATOM     91  H   UNL     1      -0.025  -4.104  -0.044  0.00  0.00    +0.145 HD
ATOM     92  H   UNL     1       0.335  -5.480   1.036  0.00  0.00    +0.145 HD
ENDBRANCH  87  88
ENDBRANCH  22  87
TORSDOF 20
