REMARK  Name = 
REMARK  7 active torsions:
REMARK  status: ('A' for Active; 'I' for Inactive)
REMARK    1  A    between atoms: C_3  and  C_4
REMARK    2  A    between atoms: C_5  and  C_6
REMARK    3  A    between atoms: C_6  and  C_8
REMARK    4  A    between atoms: C_8  and  O_9
REMARK    5  A    between atoms: C_10  and  C_11
REMARK    6  A    between atoms: C_13  and  O_14
REMARK    7  A    between atoms: C_26  and  C_27
REMARK                            x       y       z     vdW  Elec       q    Type
REMARK                         _______ _______ _______ _____ _____    ______ ____
ROOT
ATOM      1  C   UNL     1      -0.735   0.332   0.670  0.00  0.00    +0.002 C 
ATOM      2  C   UNL     1      -1.832   0.047   1.688  0.00  0.00    +0.008 C 
ATOM      3  C   UNL     1      -3.134   0.498   0.980  0.00  0.00    -0.003 C 
ATOM      4  C   UNL     1      -3.779   1.699   1.684  0.00  0.00    +0.008 C 
ATOM      5  C   UNL     1      -2.729   0.836  -0.492  0.00  0.00    +0.067 C 
ATOM      6  C   UNL     1      -1.392   0.079  -0.693  0.00  0.00    -0.017 C 
ATOM      7  C   UNL     1      -1.686  -1.430  -0.982  0.00  0.00    +0.012 C 
ATOM      8  C   UNL     1      -0.470   0.680  -1.783  0.00  0.00    +0.042 C 
ATOM      9  C   UNL     1       0.978   0.113  -1.719  0.00  0.00    +0.153 C 
ATOM     10  C   UNL     1       1.613   0.212  -0.282  0.00  0.00    +0.153 C 
ATOM     11  F   UNL     1       1.752   1.575  -0.034  0.00  0.00    -0.238 F 
ATOM     12  C   UNL     1       0.641  -0.358   0.820  0.00  0.00    +0.034 C 
ATOM     13  C   UNL     1       1.211  -0.117   2.235  0.00  0.00    +0.011 C 
ATOM     14  C   UNL     1       2.602  -0.728   2.394  0.00  0.00    +0.032 C 
ATOM     15  C   UNL     1       3.515  -0.214   1.309  0.00  0.00    -0.053 C 
ATOM     16  C   UNL     1       4.681   0.359   1.645  0.00  0.00    +0.051 C 
ATOM     17  C   UNL     1       5.566   0.914   0.623  0.00  0.00    +0.179 C 
ATOM     18  O   UNL     1       6.667   1.432   0.950  0.00  0.00    -0.288 OA
ATOM     19  C   UNL     1       5.158   0.881  -0.779  0.00  0.00    +0.047 C 
ATOM     20  C   UNL     1       4.009   0.309  -1.137  0.00  0.00    -0.009 C 
ATOM     21  C   UNL     1       3.072  -0.397  -0.153  0.00  0.00    +0.044 C 
ATOM     22  C   UNL     1       3.159  -1.911  -0.475  0.00  0.00    +0.023 C 
ENDROOT
BRANCH   5  23
ATOM     23  C   UNL     1      -3.775   0.560  -1.566  0.00  0.00    +0.162 C 
ATOM     24  O   UNL     1      -3.551   0.953  -2.701  0.00  0.00    -0.295 OA
BRANCH  23  25
ATOM     25  C   UNL     1      -5.071  -0.159  -1.284  0.00  0.00    +0.230 C 
BRANCH  25  26
ATOM     26  O   UNL     1      -5.856  -0.232  -2.442  0.00  0.00    -0.388 OA
ATOM     27  H   UNL     1      -6.725  -0.625  -2.165  0.00  0.00    +0.210 HD
ENDBRANCH  25  26
ENDBRANCH  23  25
ENDBRANCH   5  23
BRANCH   9  28
ATOM     28  O   UNL     1       0.995  -1.204  -2.198  0.00  0.00    -0.389 OA
ATOM     29  H   UNL     1       0.889  -1.160  -3.184  0.00  0.00    +0.210 HD
ENDBRANCH   9  28
TORSDOF 4
