REMARK  Name = 
REMARK  4 active torsions:
REMARK  status: ('A' for Active; 'I' for Inactive)
REMARK    1  A    between atoms: C_4  and  O_5
REMARK    2  A    between atoms: C_4  and  C_6
REMARK    3  A    between atoms: C_8  and  C_9
REMARK    4  A    between atoms: C_9  and  C_10
REMARK                            x       y       z     vdW  Elec       q    Type
REMARK                         _______ _______ _______ _____ _____    ______ ____
ROOT
ATOM      1  C   UNL     1      -1.486   0.732   0.696  0.00  0.00    +0.003 C 
ATOM      2  C   UNL     1      -2.401   0.768   1.921  0.00  0.00    +0.008 C 
ATOM      3  C   UNL     1      -3.815   0.531   1.369  0.00  0.00    +0.049 C 
ATOM      4  C   UNL     1      -3.664   0.314  -0.158  0.00  0.00    +0.132 C 
ATOM      5  C   UNL     1      -2.187  -0.219  -0.301  0.00  0.00    +0.017 C 
ATOM      6  C   UNL     1      -1.549  -0.047  -1.708  0.00  0.00    +0.041 C 
ATOM      7  C   UNL     1      -0.042   0.245  -1.703  0.00  0.00    -0.072 C 
ATOM      8  C   UNL     1       0.465   0.592  -2.902  0.00  0.00    +0.008 C 
ATOM      9  C   UNL     1       0.787   0.505  -0.413  0.00  0.00    +0.025 C 
ATOM     10  C   UNL     1       2.099  -0.326  -0.216  0.00  0.00    +0.022 C 
ATOM     11  C   UNL     1       3.034  -0.350  -1.442  0.00  0.00    +0.009 C 
ATOM     12  C   UNL     1       4.347  -1.050  -1.099  0.00  0.00    +0.005 C 
ATOM     13  C   UNL     1       5.086  -0.267  -0.017  0.00  0.00    +0.027 C 
ATOM     14  C   UNL     1       4.189   0.096   1.137  0.00  0.00    -0.027 C 
ATOM     15  C   UNL     1       2.843   0.184   1.035  0.00  0.00    -0.070 C 
ATOM     16  C   UNL     1       2.066   0.555   2.292  0.00  0.00    +0.031 C 
ATOM     17  C   UNL     1       0.684   1.165   2.006  0.00  0.00    +0.009 C 
ATOM     18  C   UNL     1      -0.025   0.355   0.911  0.00  0.00    +0.001 C 
ENDROOT
BRANCH   4  19
ATOM     19  O   UNL     1      -4.609  -0.611  -0.642  0.00  0.00    -0.376 OA
ATOM     20  H   UNL     1      -5.511  -0.298  -0.366  0.00  0.00    +0.211 HD
ENDBRANCH   4  19
BRANCH   4  21
ATOM     21  C   UNL     1      -3.890   1.614  -0.845  0.00  0.00    -0.070 C 
ATOM     22  C   UNL     1      -4.076   2.669  -1.398  0.00  0.00    +0.007 C 
ENDBRANCH   4  21
BRANCH   5  23
ATOM     23  C   UNL     1      -2.174  -1.760   0.113  0.00  0.00    +0.008 C 
ATOM     24  C   UNL     1      -0.928  -2.626  -0.181  0.00  0.00    +0.004 C 
ENDBRANCH   5  23
TORSDOF 3
