REMARK  Name = 
REMARK  8 active torsions:
REMARK  status: ('A' for Active; 'I' for Inactive)
REMARK    1  A    between atoms: C_13  and  C_14
REMARK    2  A    between atoms: C_16  and  O_17
REMARK    3  A    between atoms: C_19  and  C_20
REMARK    4  A    between atoms: C_21  and  C_27
REMARK    5  A    between atoms: C_23  and  C_24
REMARK    6  A    between atoms: C_23  and  C_25
REMARK    7  A    between atoms: C_27  and  C_29
REMARK    8  A    between atoms: C_29  and  O_30
REMARK                            x       y       z     vdW  Elec       q    Type
REMARK                         _______ _______ _______ _____ _____    ______ ____
ROOT
ATOM      1  C   UNL     1       2.594  -1.348   0.473  0.00  0.00    +0.162 C 
ATOM      2  C   UNL     1       1.151  -1.898   0.406  0.00  0.00    +0.039 C 
ATOM      3  C   UNL     1       0.307  -0.690   0.019  0.00  0.00    +0.004 C 
ATOM      4  C   UNL     1      -1.218  -0.719   0.265  0.00  0.00    -0.000 C 
ATOM      5  C   UNL     1      -1.838  -1.964  -0.406  0.00  0.00    +0.008 C 
ATOM      6  C   UNL     1      -3.358  -1.981  -0.264  0.00  0.00    +0.032 C 
ATOM      7  C   UNL     1      -3.932  -0.700  -0.814  0.00  0.00    -0.056 C 
ATOM      8  C   UNL     1      -4.872  -0.756  -1.770  0.00  0.00    +0.051 C 
ATOM      9  C   UNL     1      -5.403   0.465  -2.373  0.00  0.00    +0.179 C 
ATOM     10  O   UNL     1      -6.300   0.399  -3.254  0.00  0.00    -0.288 OA
ATOM     11  C   UNL     1      -4.875   1.761  -1.959  0.00  0.00    +0.047 C 
ATOM     12  C   UNL     1      -3.947   1.841  -1.006  0.00  0.00    -0.012 C 
ATOM     13  C   UNL     1      -3.413   0.629  -0.240  0.00  0.00    +0.013 C 
ATOM     14  C   UNL     1      -3.942   0.751   1.210  0.00  0.00    +0.020 C 
ATOM     15  C   UNL     1      -1.836   0.597  -0.333  0.00  0.00    +0.035 C 
ATOM     16  C   UNL     1      -1.097   1.897   0.152  0.00  0.00    +0.120 C 
ATOM     17  C   UNL     1       0.453   1.794   0.043  0.00  0.00    +0.042 C 
ATOM     18  C   UNL     1       1.013   0.497   0.682  0.00  0.00    +0.012 C 
ATOM     19  C   UNL     1       0.824   0.529   2.237  0.00  0.00    +0.015 C 
ATOM     20  C   UNL     1       2.506   0.176   0.350  0.00  0.00    +0.164 C 
ATOM     21  O   UNL     1       2.784   0.436  -0.999  0.00  0.00    -0.332 OA
ATOM     22  C   UNL     1       3.459  -0.700  -1.501  0.00  0.00    +0.166 C 
ATOM     23  C   UNL     1       2.852  -1.085  -2.855  0.00  0.00    +0.074 C 
ATOM     24  C   UNL     1       4.943  -0.363  -1.693  0.00  0.00    +0.074 C 
ATOM     25  O   UNL     1       3.339  -1.797  -0.620  0.00  0.00    -0.343 OA
ENDROOT
BRANCH  16  26
ATOM     26  O   UNL     1      -1.468   2.236   1.461  0.00  0.00    -0.391 OA
ATOM     27  H   UNL     1      -1.230   3.190   1.595  0.00  0.00    +0.210 HD
ENDBRANCH  16  26
BRANCH  20  28
ATOM     28  C   UNL     1       3.503   0.981   1.190  0.00  0.00    +0.193 C 
ATOM     29  O   UNL     1       3.475   2.200   1.114  0.00  0.00    -0.292 OA
BRANCH  28  30
ATOM     30  C   UNL     1       4.521   0.354   2.107  0.00  0.00    +0.233 C 
BRANCH  30  31
ATOM     31  O   UNL     1       3.899  -0.061   3.291  0.00  0.00    -0.387 OA
ATOM     32  H   UNL     1       4.598  -0.524   3.822  0.00  0.00    +0.210 HD
ENDBRANCH  30  31
ENDBRANCH  28  30
ENDBRANCH  20  28
TORSDOF 4
