REMARK  Name = 
REMARK  8 active torsions:
REMARK  status: ('A' for Active; 'I' for Inactive)
REMARK    1  A    between atoms: C_1  and  N_2
REMARK    2  A    between atoms: N_2  and  C_3
REMARK    3  A    between atoms: N_2  and  C_4
REMARK    4  A    between atoms: C_4  and  C_5
REMARK    5  A    between atoms: C_5  and  C_6
REMARK    6  A    between atoms: C_5  and  C_13
REMARK    7  A    between atoms: C_9  and  O_10
REMARK    8  A    between atoms: C_13  and  O_14
REMARK                            x       y       z     vdW  Elec       q    Type
REMARK                         _______ _______ _______ _____ _____    ______ ____
ROOT
ATOM      1  C   UNL     1      -0.357   0.573  -0.490  0.00  0.00    +0.065 C 
ENDROOT
BRANCH   1   2
ATOM      2  C   UNL     1      -1.084  -0.770  -0.384  0.00  0.00    -0.040 A 
ATOM      3  C   UNL     1      -1.346  -1.518  -1.549  0.00  0.00    +0.007 A 
ATOM      4  C   UNL     1      -1.996  -2.753  -1.474  0.00  0.00    +0.045 A 
ATOM      5  C   UNL     1      -2.411  -3.257  -0.240  0.00  0.00    +0.117 A 
ATOM      6  C   UNL     1      -2.179  -2.515   0.924  0.00  0.00    +0.045 A 
ATOM      7  C   UNL     1      -1.529  -1.280   0.854  0.00  0.00    +0.007 A 
BRANCH   5   8
ATOM      8  O   UNL     1      -3.055  -4.490  -0.181  0.00  0.00    -0.507 OA
ATOM      9  H   UNL     1      -3.369  -4.882   0.699  0.00  0.00    +0.292 HD
ENDBRANCH   5   8
ENDBRANCH   1   2
BRANCH   1  10
ATOM     10  C   UNL     1       1.204   0.477  -0.256  0.00  0.00    +0.074 C 
ATOM     11  C   UNL     1       1.849  -0.533  -1.266  0.00  0.00    +0.035 C 
ATOM     12  C   UNL     1       2.150  -1.905  -0.648  0.00  0.00    +0.003 C 
ATOM     13  C   UNL     1       3.144  -1.787   0.522  0.00  0.00    +0.000 C 
ATOM     14  C   UNL     1       2.998  -0.471   1.313  0.00  0.00    +0.003 C 
ATOM     15  C   UNL     1       1.571   0.081   1.219  0.00  0.00    +0.035 C 
BRANCH  10  16
ATOM     16  O   UNL     1       1.776   1.733  -0.562  0.00  0.00    -0.388 OA
ATOM     17  H   UNL     1       1.652   2.350   0.203  0.00  0.00    +0.210 HD
ENDBRANCH  10  16
ENDBRANCH   1  10
BRANCH   1  18
ATOM     18  C   UNL     1      -1.067   1.654   0.376  0.00  0.00    +0.094 C 
BRANCH  18  20
ATOM     19  C   UNL     1      -0.797   3.989   0.985  0.00  0.00    +0.104 C 
ATOM     20  N   UNL     1      -0.785   3.020  -0.124  0.00  0.00    -0.308 NA
ATOM     21  C   UNL     1      -1.769   3.430  -1.142  0.00  0.00    +0.104 C 
ENDBRANCH  18  20
ENDBRANCH   1  18
TORSDOF 6
