REMARK  Name = 
REMARK  8 active torsions:
REMARK  status: ('A' for Active; 'I' for Inactive)
REMARK    1  A    between atoms: C_3  and  C_4
REMARK    2  A    between atoms: C_5  and  O_6
REMARK    3  A    between atoms: C_5  and  C_7
REMARK    4  A    between atoms: C_7  and  C_9
REMARK    5  A    between atoms: C_9  and  O_10
REMARK    6  A    between atoms: C_11  and  C_12
REMARK    7  A    between atoms: C_14  and  O_15
REMARK    8  A    between atoms: C_27  and  C_28
REMARK                            x       y       z     vdW  Elec       q    Type
REMARK                         _______ _______ _______ _____ _____    ______ ____
ROOT
ATOM      1  C   UNL     1       0.739  -0.373   0.544  0.00  0.00    +0.005 C 
ATOM      2  C   UNL     1       1.826  -0.289   1.605  0.00  0.00    +0.011 C 
ATOM      3  C   UNL     1       3.147  -0.211   0.800  0.00  0.00    +0.026 C 
ATOM      4  C   UNL     1       4.068  -1.401   1.127  0.00  0.00    +0.011 C 
ATOM      5  C   UNL     1       2.749  -0.094  -0.722  0.00  0.00    +0.134 C 
ATOM      6  C   UNL     1       1.281   0.453  -0.631  0.00  0.00    +0.010 C 
ATOM      7  C   UNL     1       1.310   1.995  -0.338  0.00  0.00    +0.015 C 
ATOM      8  C   UNL     1       0.380   0.163  -1.865  0.00  0.00    +0.044 C 
ATOM      9  C   UNL     1      -1.127   0.438  -1.590  0.00  0.00    +0.154 C 
ATOM     10  C   UNL     1      -1.655  -0.296  -0.304  0.00  0.00    +0.153 C 
ATOM     11  F   UNL     1      -1.567  -1.656  -0.589  0.00  0.00    -0.238 F 
ATOM     12  C   UNL     1      -0.719  -0.024   0.935  0.00  0.00    +0.034 C 
ATOM     13  C   UNL     1      -1.165  -0.861   2.154  0.00  0.00    +0.011 C 
ATOM     14  C   UNL     1      -2.619  -0.584   2.526  0.00  0.00    +0.032 C 
ATOM     15  C   UNL     1      -3.504  -0.802   1.325  0.00  0.00    -0.053 C 
ATOM     16  C   UNL     1      -4.547  -1.643   1.419  0.00  0.00    +0.051 C 
ATOM     17  C   UNL     1      -5.394  -1.921   0.260  0.00  0.00    +0.179 C 
ATOM     18  O   UNL     1      -6.378  -2.698   0.367  0.00  0.00    -0.288 OA
ATOM     19  C   UNL     1      -5.080  -1.305  -1.026  0.00  0.00    +0.047 C 
ATOM     20  C   UNL     1      -4.054  -0.463  -1.141  0.00  0.00    -0.009 C 
ATOM     21  C   UNL     1      -3.180  -0.025   0.038  0.00  0.00    +0.044 C 
ATOM     22  C   UNL     1      -3.517   1.464   0.302  0.00  0.00    +0.023 C 
ENDROOT
BRANCH   5  23
ATOM     23  O   UNL     1       2.714  -1.378  -1.315  0.00  0.00    -0.380 OA
ATOM     24  H   UNL     1       3.647  -1.660  -1.511  0.00  0.00    +0.211 HD
ENDBRANCH   5  23
BRANCH   5  25
ATOM     25  C   UNL     1       3.659   0.807  -1.577  0.00  0.00    +0.190 C 
ATOM     26  O   UNL     1       3.265   1.139  -2.685  0.00  0.00    -0.292 OA
BRANCH  25  27
ATOM     27  C   UNL     1       5.041   1.263  -1.166  0.00  0.00    +0.233 C 
BRANCH  27  28
ATOM     28  O   UNL     1       5.976   0.908  -2.150  0.00  0.00    -0.387 OA
ATOM     29  H   UNL     1       5.903   1.585  -2.874  0.00  0.00    +0.210 HD
ENDBRANCH  27  28
ENDBRANCH  25  27
ENDBRANCH   5  25
BRANCH   9  30
ATOM     30  O   UNL     1      -1.360   1.820  -1.526  0.00  0.00    -0.389 OA
ATOM     31  H   UNL     1      -1.294   2.173  -2.451  0.00  0.00    +0.210 HD
ENDBRANCH   9  30
TORSDOF 5
