REMARK  Name = 
REMARK  7 active torsions:
REMARK  status: ('A' for Active; 'I' for Inactive)
REMARK    1  A    between atoms: C_1  and  N_2
REMARK    2  A    between atoms: N_2  and  C_3
REMARK    3  A    between atoms: N_2  and  C_4
REMARK    4  A    between atoms: C_4  and  C_5
REMARK    5  A    between atoms: C_5  and  C_6
REMARK    6  A    between atoms: C_6  and  C_7
REMARK    7  A    between atoms: C_6  and  C_14
REMARK                            x       y       z     vdW  Elec       q    Type
REMARK                         _______ _______ _______ _____ _____    ______ ____
ROOT
ATOM      1  C   UNL     1       1.147   0.433   2.572  0.00  0.00    +0.069 C 
ENDROOT
BRANCH   1   2
ATOM      2  C   UNL     1       2.672   0.393   2.497  0.00  0.00    -0.038 A 
ATOM      3  C   UNL     1       3.425   1.577   2.539  0.00  0.00    +0.005 A 
ATOM      4  C   UNL     1       4.809   1.560   2.443  0.00  0.00    +0.015 A 
ATOM      5  C   UNL     1       5.472   0.344   2.395  0.00  0.00    +0.018 A 
ATOM      6 BR   UNL     1       7.358   0.324   2.412  0.00  0.00    -0.050 Br
ATOM      7  C   UNL     1       4.758  -0.850   2.359  0.00  0.00    +0.015 A 
ATOM      8  C   UNL     1       3.363  -0.824   2.370  0.00  0.00    +0.005 A 
ENDBRANCH   1   2
BRANCH   1   9
ATOM      9  C   UNL     1       0.615  -0.090   3.888  0.00  0.00    +0.049 A 
ATOM     10  C   UNL     1       0.645  -1.471   4.123  0.00  0.00    +0.024 A 
ATOM     11  C   UNL     1       0.253  -1.962   5.348  0.00  0.00    +0.003 A 
ATOM     12  C   UNL     1      -0.219  -1.065   6.299  0.00  0.00    +0.020 A 
ATOM     13  C   UNL     1      -0.279   0.281   5.964  0.00  0.00    +0.111 A 
ATOM     14  N   UNL     1       0.133   0.792   4.793  0.00  0.00    -0.259 NA
ENDBRANCH   1   9
BRANCH   1  15
ATOM     15  C   UNL     1       0.544   1.780   2.114  0.00  0.00    +0.029 C 
BRANCH  15  16
ATOM     16  C   UNL     1       0.945   2.186   0.672  0.00  0.00    +0.085 C 
BRANCH  16  18
ATOM     17  C   UNL     1       1.018   0.002  -0.497  0.00  0.00    +0.104 C 
ATOM     18  N   UNL     1       0.459   1.349  -0.435  0.00  0.00    -0.308 NA
ATOM     19  C   UNL     1      -0.996   1.317  -0.449  0.00  0.00    +0.104 C 
ENDBRANCH  16  18
ENDBRANCH  15  16
ENDBRANCH   1  15
TORSDOF 5
