REMARK  Name = 
REMARK  7 active torsions:
REMARK  status: ('A' for Active; 'I' for Inactive)
REMARK    1  A    between atoms: C_1  and  C_2
REMARK    2  A    between atoms: C_2  and  N_3
REMARK    3  A    between atoms: N_3  and  C_4
REMARK    4  A    between atoms: C_4  and  C_5
REMARK    5  A    between atoms: C_4  and  C_6
REMARK    6  A    between atoms: C_6  and  C_7
REMARK    7  A    between atoms: C_11  and  C_13
REMARK                            x       y       z     vdW  Elec       q    Type
REMARK                         _______ _______ _______ _____ _____    ______ ____
ROOT
ATOM      1  C   UNL     1       0.994  -0.019  -1.082  0.00  0.00    -0.045 A 
ATOM      2  C   UNL     1       1.274  -1.394  -1.089  0.00  0.00    +0.004 A 
ATOM      3  C   UNL     1       2.451  -1.875  -0.515  0.00  0.00    +0.001 A 
ATOM      4  C   UNL     1       3.364  -0.991   0.064  0.00  0.00    +0.012 A 
ATOM      5  C   UNL     1       3.116   0.393   0.055  0.00  0.00    +0.055 A 
ATOM      6  C   UNL     1       1.916   0.868  -0.501  0.00  0.00    +0.016 A 
ENDROOT
BRANCH   5   7
ATOM      7  C   UNL     1       4.074   1.346   0.725  0.00  0.00    +0.417 C 
ATOM      8  F   UNL     1       5.368   0.855   0.679  0.00  0.00    -0.166 F 
ATOM      9  F   UNL     1       3.702   1.512   2.046  0.00  0.00    -0.166 F 
ATOM     10  F   UNL     1       4.058   2.577   0.093  0.00  0.00    -0.166 F 
ENDBRANCH   5   7
BRANCH   1  11
ATOM     11  C   UNL     1      -0.300   0.499  -1.667  0.00  0.00    +0.053 C 
BRANCH  11  12
ATOM     12  C   UNL     1      -1.470   0.492  -0.655  0.00  0.00    +0.055 C 
ATOM     13  C   UNL     1      -1.189   1.458   0.511  0.00  0.00    +0.024 C 
BRANCH  12  14
ATOM     14  N   UNL     1      -1.719  -0.886  -0.179  0.00  0.00    -0.313 NA
ATOM     15  H   UNL     1      -1.858  -1.511  -1.008  0.00  0.00    +0.122 HD
BRANCH  14  17
ATOM     16  C   UNL     1      -4.217  -0.728  -0.013  0.00  0.00    +0.020 C 
ATOM     17  C   UNL     1      -2.896  -1.037   0.697  0.00  0.00    +0.078 C 
ENDBRANCH  14  17
ENDBRANCH  12  14
ENDBRANCH  11  12
ENDBRANCH   1  11
TORSDOF 5
