REMARK  Name = 
REMARK  5 active torsions:
REMARK  status: ('A' for Active; 'I' for Inactive)
REMARK    1  A    between atoms: C_1  and  C_2
REMARK    2  A    between atoms: C_2  and  C_3
REMARK    3  A    between atoms: C_2  and  C_8
REMARK    4  A    between atoms: C_9  and  C_10
REMARK    5  A    between atoms: C_11  and  C_12
REMARK                            x       y       z     vdW  Elec       q    Type
REMARK                         _______ _______ _______ _____ _____    ______ ____
ROOT
ATOM      1  C   UNL     1       1.216  -2.496  -0.238  0.00  0.00    +0.019 C 
ATOM      2  C   UNL     1       1.032  -1.002  -0.529  0.00  0.00    +0.066 C 
ENDROOT
BRANCH   2   3
ATOM      3  C   UNL     1      -0.189  -0.461   0.213  0.00  0.00    -0.036 A 
ATOM      4  C   UNL     1      -1.434  -0.216  -0.439  0.00  0.00    -0.044 A 
ATOM      5  C   UNL     1      -1.597  -0.528  -1.913  0.00  0.00    +0.044 C 
ATOM      6  C   UNL     1      -2.509   0.347   0.306  0.00  0.00    -0.047 A 
ATOM      7  C   UNL     1      -3.829   0.699  -0.332  0.00  0.00    +0.044 C 
ATOM      8  C   UNL     1      -2.358   0.568   1.684  0.00  0.00    +0.003 A 
ATOM      9  C   UNL     1      -1.163   0.265   2.325  0.00  0.00    +0.001 A 
ATOM     10  C   UNL     1      -0.090  -0.243   1.601  0.00  0.00    +0.004 A 
ENDBRANCH   2   3
BRANCH   2  11
ATOM     11  C   UNL     1       2.271  -0.209  -0.193  0.00  0.00    +0.066 A 
ATOM     12  C   UNL     1       2.583   1.034  -0.699  0.00  0.00    +0.107 A 
ATOM     13  N   UNL     1       3.724   1.440  -0.122  0.00  0.00    -0.351 N 
ATOM     14  C   UNL     1       4.074   0.452   0.721  0.00  0.00    +0.196 A 
ATOM     15  N   UNL     1       3.202  -0.578   0.712  0.00  0.00    -0.240 NA
ATOM     16  H   UNL     1       4.228   2.340  -0.286  0.00  0.00    +0.166 HD
ENDBRANCH   2  11
TORSDOF 2
