REMARK  Name = 
REMARK  5 active torsions:
REMARK  status: ('A' for Active; 'I' for Inactive)
REMARK    1  A    between atoms: C_1  and  O_2
REMARK    2  A    between atoms: O_2  and  C_3
REMARK    3  A    between atoms: C_3  and  C_5
REMARK    4  A    between atoms: C_5  and  C_6
REMARK    5  A    between atoms: C_5  and  C_12
REMARK                            x       y       z     vdW  Elec       q    Type
REMARK                         _______ _______ _______ _____ _____    ______ ____
ROOT
ATOM      1  C   UNL     1      -0.341   0.438  -0.262  0.00  0.00    +0.144 C 
ENDROOT
BRANCH   1   2
ATOM      2  C   UNL     1       0.970   0.115   0.503  0.00  0.00    +0.072 C 
ATOM      3  C   UNL     1       1.403  -1.364   0.294  0.00  0.00    +0.020 C 
ATOM      4  C   UNL     1       2.910  -1.524   0.493  0.00  0.00    +0.003 C 
ATOM      5  C   UNL     1       3.693  -0.656  -0.506  0.00  0.00    +0.015 C 
ATOM      6  C   UNL     1       2.903   0.590  -0.950  0.00  0.00    +0.081 C 
ATOM      7  N   UNL     1       2.028   1.083   0.123  0.00  0.00    -0.312 NA
ATOM      8  H   UNL     1       2.620   1.295   0.961  0.00  0.00    +0.122 HD
ENDBRANCH   1   2
BRANCH   1   9
ATOM      9  C   UNL     1      -1.476  -0.496   0.121  0.00  0.00    -0.032 A 
ATOM     10  C   UNL     1      -2.040  -1.351  -0.843  0.00  0.00    +0.004 A 
ATOM     11  C   UNL     1      -3.077  -2.223  -0.498  0.00  0.00    +0.000 A 
ATOM     12  C   UNL     1      -3.561  -2.251   0.812  0.00  0.00    +0.000 A 
ATOM     13  C   UNL     1      -3.010  -1.409   1.779  0.00  0.00    +0.000 A 
ATOM     14  C   UNL     1      -1.972  -0.535   1.439  0.00  0.00    +0.004 A 
ENDBRANCH   1   9
BRANCH   1  15
ATOM     15  C   UNL     1      -0.773   1.869  -0.070  0.00  0.00    +0.316 C 
ATOM     16  O   UNL     1      -0.707   2.410   1.068  0.00  0.00    -0.250 OA
BRANCH  15  18
ATOM     17  C   UNL     1      -1.739   3.922  -1.057  0.00  0.00    +0.280 C 
ATOM     18  O   UNL     1      -1.291   2.576  -1.160  0.00  0.00    -0.467 OA
ENDBRANCH  15  18
ENDBRANCH   1  15
TORSDOF 4
