REMARK  Name = 
REMARK  4 active torsions:
REMARK  status: ('A' for Active; 'I' for Inactive)
REMARK    1  A    between atoms: C_1  and  C_2
REMARK    2  A    between atoms: C_2  and  C_3
REMARK    3  A    between atoms: C_2  and  N_12
REMARK    4  A    between atoms: C_3  and  N_4
REMARK                            x       y       z     vdW  Elec       q    Type
REMARK                         _______ _______ _______ _____ _____    ______ ____
ROOT
ATOM      1  C   UNL     1      -0.676  -2.415   0.534  0.00  0.00    +0.025 C 
ATOM      2  C   UNL     1      -0.762  -0.921   0.164  0.00  0.00    +0.069 C 
ENDROOT
BRANCH   2   3
ATOM      3  N   UNL     1      -1.797  -0.749  -0.908  0.00  0.00    -0.282 NA
ATOM      4  C   UNL     1      -1.598   0.380  -1.852  0.00  0.00    +0.181 C 
ATOM      5  C   UNL     1      -1.796   1.703  -1.168  0.00  0.00    +0.233 C 
ATOM      6  O   UNL     1      -1.162   2.721  -1.551  0.00  0.00    -0.274 OA
ATOM      7  N   UNL     1      -2.753   1.806  -0.113  0.00  0.00    -0.254 N 
ATOM      8  C   UNL     1      -3.448   0.634   0.320  0.00  0.00    +0.233 C 
ATOM      9  O   UNL     1      -4.315   0.715   1.230  0.00  0.00    -0.274 OA
ATOM     10  C   UNL     1      -3.173  -0.690  -0.347  0.00  0.00    +0.181 C 
ATOM     11  H   UNL     1      -2.933   2.726   0.348  0.00  0.00    +0.158 HD
ENDBRANCH   2   3
BRANCH   2  12
ATOM     12  C   UNL     1       0.659  -0.426  -0.236  0.00  0.00    +0.104 C 
BRANCH  12  13
ATOM     13  N   UNL     1       1.638  -0.665   0.854  0.00  0.00    -0.284 NA
ATOM     14  C   UNL     1       1.667   0.434   1.849  0.00  0.00    +0.181 C 
ATOM     15  C   UNL     1       2.343   1.668   1.310  0.00  0.00    +0.233 C 
ATOM     16  O   UNL     1       2.072   2.799   1.793  0.00  0.00    -0.274 OA
ATOM     17  N   UNL     1       3.325   1.549   0.279  0.00  0.00    -0.254 N 
ATOM     18  C   UNL     1       3.639   0.261  -0.252  0.00  0.00    +0.233 C 
ATOM     19  O   UNL     1       4.487   0.146  -1.175  0.00  0.00    -0.274 OA
ATOM     20  C   UNL     1       2.994  -0.962   0.339  0.00  0.00    +0.181 C 
ATOM     21  H   UNL     1       3.797   2.401  -0.098  0.00  0.00    +0.158 HD
ENDBRANCH  12  13
ENDBRANCH   2  12
TORSDOF 3
