REMARK  Name = 
REMARK  4 active torsions:
REMARK  status: ('A' for Active; 'I' for Inactive)
REMARK    1  A    between atoms: C_1  and  C_2
REMARK    2  A    between atoms: C_2  and  N_3
REMARK    3  A    between atoms: C_2  and  C_4
REMARK    4  A    between atoms: C_4  and  C_5
REMARK                            x       y       z     vdW  Elec       q    Type
REMARK                         _______ _______ _______ _____ _____    ______ ____
ROOT
ATOM      1  C   UNL     1      -0.707  -0.007   0.954  0.00  0.00    +0.053 C 
ENDROOT
BRANCH   1   2
ATOM      2  C   UNL     1       0.694  -0.252   0.455  0.00  0.00    -0.046 A 
ATOM      3  C   UNL     1       1.044  -1.494  -0.103  0.00  0.00    +0.004 A 
ATOM      4  C   UNL     1       2.337  -1.708  -0.590  0.00  0.00    +0.000 A 
ATOM      5  C   UNL     1       3.287  -0.684  -0.530  0.00  0.00    +0.000 A 
ATOM      6  C   UNL     1       2.944   0.556   0.015  0.00  0.00    +0.000 A 
ATOM      7  C   UNL     1       1.651   0.775   0.502  0.00  0.00    +0.004 A 
ENDBRANCH   1   2
BRANCH   1   9
ATOM      8  C   UNL     1      -2.954   1.035   0.448  0.00  0.00    +0.024 C 
ATOM      9  C   UNL     1      -1.572   0.680  -0.118  0.00  0.00    +0.052 C 
BRANCH   9  10
ATOM     10  N   UNL     1      -1.700  -0.181  -1.297  0.00  0.00    -0.327 NA
ATOM     11  H   UNL     1      -2.267  -1.026  -1.050  0.00  0.00    +0.118 HD
ATOM     12  H   UNL     1      -2.222   0.340  -2.039  0.00  0.00    +0.118 HD
ENDBRANCH   9  10
ENDBRANCH   1   9
TORSDOF 3
