REMARK  Name = 
REMARK  8 active torsions:
REMARK  status: ('A' for Active; 'I' for Inactive)
REMARK    1  A    between atoms: N_1  and  CA_2
REMARK    2  A    between atoms: CA_2  and  C_3
REMARK    3  A    between atoms: CA_2  and  C_22
REMARK    4  A    between atoms: C_3  and  C_4
REMARK    5  A    between atoms: C_8  and  O_9
REMARK    6  A    between atoms: O_9  and  C_10
REMARK    7  A    between atoms: C_14  and  O_15
REMARK    8  A    between atoms: C_22  and  O_23
REMARK                            x       y       z     vdW  Elec       q    Type
REMARK                         _______ _______ _______ _____ _____    ______ ____
ROOT
ATOM      1  C   UNL     1       2.320  -0.429   0.872  0.00  0.00    -0.043 A 
ATOM      2  C   UNL     1       3.458  -0.717   0.127  0.00  0.00    +0.021 A 
ATOM      3  C   UNL     1       4.479  -1.485   0.677  0.00  0.00    +0.057 A 
ATOM      4  I   UNL     1       5.874  -2.049  -0.838  0.00  0.00    -0.040 I 
ATOM      5  C   UNL     1       4.391  -1.921   2.020  0.00  0.00    +0.155 A 
ATOM      6  C   UNL     1       3.226  -1.613   2.756  0.00  0.00    +0.057 A 
ATOM      7  I   UNL     1       2.698  -2.653   4.528  0.00  0.00    -0.040 I 
ATOM      8  C   UNL     1       2.235  -0.792   2.221  0.00  0.00    +0.021 A 
ENDROOT
BRANCH   1   9
ATOM      9  C   UNL     1       1.043  -0.186   0.109  0.00  0.00    +0.065 C 
BRANCH   9  10
ATOM     10  CA  UNL     1       0.339  -1.564  -0.117  0.00  0.00    +0.165 C 
BRANCH  10  11
ATOM     11  N   UNL     1       0.622  -2.692   0.808  0.00  0.00    -0.318 NA
ATOM     12  H1  UNL     1       0.295  -2.419   1.742  0.00  0.00    +0.119 HD
ATOM     13  H2  UNL     1       1.630  -2.814   0.910  0.00  0.00    +0.119 HD
ENDBRANCH  10  11
BRANCH  10  14
ATOM     14  C   UNL     1      -1.175  -1.379  -0.076  0.00  0.00    +0.322 C 
ATOM     15  OXT UNL     1      -1.765  -0.846   0.844  0.00  0.00    -0.249 OA
BRANCH  14  16
ATOM     16  O   UNL     1      -1.808  -1.973  -1.117  0.00  0.00    -0.480 OA
ATOM     17  H   UNL     1      -1.205  -2.493  -1.681  0.00  0.00    +0.295 HD
ENDBRANCH  14  16
ENDBRANCH  10  14
ENDBRANCH   9  10
ENDBRANCH   1   9
BRANCH   5  18
ATOM     18  O   UNL     1       5.309  -2.692   2.693  0.00  0.00    -0.454 OA
BRANCH  18  19
ATOM     19  C   UNL     1       6.639  -2.551   2.401  0.00  0.00    +0.131 A 
ATOM     20  C   UNL     1       7.253  -1.319   2.149  0.00  0.00    +0.064 A 
ATOM     21  C   UNL     1       8.552  -1.305   1.639  0.00  0.00    +0.059 A 
ATOM     22  I   UNL     1       9.310   0.508   0.914  0.00  0.00    -0.040 I 
ATOM     23  C   UNL     1       9.267  -2.501   1.493  0.00  0.00    +0.143 A 
ATOM     24  C   UNL     1       8.661  -3.720   1.821  0.00  0.00    +0.059 A 
ATOM     25  I   UNL     1       9.645  -5.547   1.586  0.00  0.00    -0.040 I 
ATOM     26  C   UNL     1       7.343  -3.746   2.272  0.00  0.00    +0.064 A 
BRANCH  23  27
ATOM     27  O   UNL     1      10.549  -2.502   1.011  0.00  0.00    -0.505 OA
ATOM     28  H   UNL     1      10.816  -1.580   0.855  0.00  0.00    +0.292 HD
ENDBRANCH  23  27
ENDBRANCH  18  19
ENDBRANCH   5  18
TORSDOF 8
