REMARK  Name = 
REMARK  3 active torsions:
REMARK  status: ('A' for Active; 'I' for Inactive)
REMARK    1  A    between atoms: N_9  and  C_10
REMARK    2  A    between atoms: C_16  and  O_17
REMARK    3  A    between atoms: O_17  and  C_18
REMARK                            x       y       z     vdW  Elec       q    Type
REMARK                         _______ _______ _______ _____ _____    ______ ____
ROOT
ATOM      1  C   UNL     1      -1.920   0.122  -0.035  0.00  0.00    +0.017 C 
ATOM      2  C   UNL     1      -2.253   1.052  -1.216  0.00  0.00    +0.006 C 
ATOM      3  C   UNL     1      -2.611   2.471  -0.718  0.00  0.00    +0.000 C 
ATOM      4  C   UNL     1      -2.154   2.754   0.729  0.00  0.00    +0.001 C 
ATOM      5  C   UNL     1      -0.764   2.160   1.005  0.00  0.00    +0.012 C 
ATOM      6  C   UNL     1      -0.659   0.612   0.734  0.00  0.00    +0.002 C 
ATOM      7  C   UNL     1      -0.623  -0.191   2.059  0.00  0.00    +0.027 C 
ATOM      8  C   UNL     1      -0.586  -1.714   1.794  0.00  0.00    +0.085 C 
ATOM      9  N   UNL     1      -1.659  -2.141   0.868  0.00  0.00    -0.302 NA
ATOM     10  C   UNL     1      -1.640  -3.597   0.657  0.00  0.00    +0.105 C 
ATOM     11  C   UNL     1      -1.747  -1.357  -0.397  0.00  0.00    +0.065 C 
ATOM     12  C   UNL     1      -0.553  -1.553  -1.362  0.00  0.00    +0.054 C 
ATOM     13  C   UNL     1       0.675  -0.760  -0.991  0.00  0.00    -0.042 A 
ATOM     14  C   UNL     1       0.636   0.288  -0.037  0.00  0.00    -0.034 A 
ATOM     15  C   UNL     1       1.852   0.906   0.328  0.00  0.00    +0.050 A 
ATOM     16  C   UNL     1       3.054   0.585  -0.309  0.00  0.00    +0.120 A 
ATOM     17  C   UNL     1       3.058  -0.398  -1.310  0.00  0.00    +0.046 A 
ATOM     18  C   UNL     1       1.881  -1.067  -1.639  0.00  0.00    +0.007 A 
ENDROOT
BRANCH  16  19
ATOM     19  O   UNL     1       4.219   1.260   0.086  0.00  0.00    -0.495 OA
ATOM     20  C   UNL     1       5.509   1.034  -0.472  0.00  0.00    +0.277 C 
ENDBRANCH  16  19
TORSDOF 1
