REMARK  Name = 
REMARK  3 active torsions:
REMARK  status: ('A' for Active; 'I' for Inactive)
REMARK    1  A    between atoms: C_6  and  O_7
REMARK    2  A    between atoms: C_10  and  C_11
REMARK    3  A    between atoms: C_17  and  N_18
REMARK                            x       y       z     vdW  Elec       q    Type
REMARK                         _______ _______ _______ _____ _____    ______ ____
ROOT
ATOM      1  C   UNL     1      -0.612   1.762  -0.428  0.00  0.00    +0.011 C 
ATOM      2  C   UNL     1       0.821   2.190  -0.071  0.00  0.00    +0.040 C 
ATOM      3  C   UNL     1       1.717   1.030   0.306  0.00  0.00    -0.043 A 
ATOM      4  C   UNL     1       2.911   1.335   0.981  0.00  0.00    +0.007 A 
ATOM      5  C   UNL     1       3.800   0.330   1.349  0.00  0.00    +0.045 A 
ATOM      6  C   UNL     1       3.509  -1.002   1.057  0.00  0.00    +0.117 A 
ATOM      7  C   UNL     1       2.336  -1.324   0.372  0.00  0.00    +0.050 A 
ATOM      8  C   UNL     1       1.436  -0.321  -0.063  0.00  0.00    -0.033 A 
ATOM      9  C   UNL     1       0.111  -0.722  -0.756  0.00  0.00    +0.009 C 
ATOM     10  C   UNL     1       0.409  -1.723  -1.911  0.00  0.00    +0.018 C 
ATOM     11  C   UNL     1      -0.753  -1.461   0.334  0.00  0.00    +0.013 C 
ATOM     12  C   UNL     1      -2.287  -1.495   0.172  0.00  0.00    +0.001 C 
ATOM     13  C   UNL     1      -3.025  -0.473   1.057  0.00  0.00    +0.000 C 
ATOM     14  C   UNL     1      -2.874   1.002   0.649  0.00  0.00    +0.000 C 
ATOM     15  C   UNL     1      -1.456   1.570   0.861  0.00  0.00    +0.005 C 
ATOM     16  C   UNL     1      -0.518   0.568  -1.408  0.00  0.00    +0.064 C 
ENDROOT
BRANCH  16  17
ATOM     17  N   UNL     1      -1.776   0.342  -2.129  0.00  0.00    -0.326 NA
ATOM     18  H   UNL     1      -2.130   1.257  -2.491  0.00  0.00    +0.119 HD
ATOM     19  H   UNL     1      -1.585  -0.217  -2.991  0.00  0.00    +0.119 HD
ENDBRANCH  16  17
BRANCH   6  20
ATOM     20  O   UNL     1       4.376  -2.020   1.450  0.00  0.00    -0.507 OA
ATOM     21  H   UNL     1       5.234  -1.821   1.951  0.00  0.00    +0.292 HD
ENDBRANCH   6  20
TORSDOF 2
