REMARK  Name = 
REMARK  6 active torsions:
REMARK  status: ('A' for Active; 'I' for Inactive)
REMARK    1  A    between atoms: C_1  and  C_2
REMARK    2  A    between atoms: N_4  and  C_5
REMARK    3  A    between atoms: C_8  and  C_9
REMARK    4  A    between atoms: C_9  and  O_10
REMARK    5  A    between atoms: C_14  and  N_15
REMARK    6  A    between atoms: C_16  and  C_17
REMARK                            x       y       z     vdW  Elec       q    Type
REMARK                         _______ _______ _______ _____ _____    ______ ____
ROOT
ATOM      1  C   UNL     1       1.838   1.858   2.134  0.00  0.00    +0.063 A 
ATOM      2  C   UNL     1       3.048   1.179   1.853  0.00  0.00    +0.051 A 
ATOM      3  I   UNL     1       4.009   1.708  -0.185  0.00  0.00    -0.041 I 
ATOM      4  C   UNL     1       3.880   0.635   2.859  0.00  0.00    +0.089 A 
ATOM      5  C   UNL     1       3.568   0.980   4.208  0.00  0.00    +0.051 A 
ATOM      6  I   UNL     1       5.424   1.131   5.531  0.00  0.00    -0.041 I 
ATOM      7  C   UNL     1       2.369   1.685   4.585  0.00  0.00    +0.063 A 
ATOM      8  C   UNL     1       1.533   2.136   3.503  0.00  0.00    +0.058 A 
ATOM      9  I   UNL     1      -0.219   3.305   3.925  0.00  0.00    -0.040 I 
ENDROOT
BRANCH   1  13
ATOM     10  C   UNL     1       0.872   0.008  -0.022  0.00  0.00    +0.109 C 
ATOM     11  C   UNL     1       0.563   1.492  -0.007  0.00  0.00    +0.214 C 
ATOM     12  O   UNL     1      -0.133   2.002  -0.887  0.00  0.00    -0.276 OA
ATOM     13  N   UNL     1       0.978   2.257   1.070  0.00  0.00    -0.284 N 
ATOM     14  H   UNL     1       0.503   3.155   1.119  0.00  0.00    +0.155 HD
ENDBRANCH   1  13
BRANCH   7  15
ATOM     15  N   UNL     1       1.968   1.967   5.963  0.00  0.00    -0.284 N 
ATOM     16  C   UNL     1       2.413   1.312   7.100  0.00  0.00    +0.214 C 
ATOM     17  C   UNL     1       2.028   1.841   8.461  0.00  0.00    +0.109 C 
ATOM     18  O   UNL     1       3.094   0.280   7.084  0.00  0.00    -0.276 OA
ATOM     19  H   UNL     1       1.113   2.512   6.074  0.00  0.00    +0.155 HD
ENDBRANCH   7  15
BRANCH   4  20
ATOM     20  C   UNL     1       4.969  -0.331   2.440  0.00  0.00    +0.339 C 
ATOM     21  O   UNL     1       5.198  -0.621   1.283  0.00  0.00    -0.245 OA
BRANCH  20  22
ATOM     22  O   UNL     1       5.629  -1.007   3.401  0.00  0.00    -0.477 OA
ATOM     23  H   UNL     1       5.471  -0.748   4.327  0.00  0.00    +0.295 HD
ENDBRANCH  20  22
ENDBRANCH   4  20
TORSDOF 4
