REMARK  Name = 
REMARK  2 active torsions:
REMARK  status: ('A' for Active; 'I' for Inactive)
REMARK    1  A    between atoms: C_1  and  N_2
REMARK    2  A    between atoms: C_10  and  C_15
REMARK                            x       y       z     vdW  Elec       q    Type
REMARK                         _______ _______ _______ _____ _____    ______ ____
ROOT
ATOM      1  C   UNL     1      -3.165  -0.897   1.591  0.00  0.00    +0.138 C 
ATOM      2  N   UNL     1      -2.267  -0.968   0.434  0.00  0.00    -0.272 N 
ATOM      3  C   UNL     1      -1.820   0.251  -0.200  0.00  0.00    +0.045 A 
ATOM      4  C   UNL     1      -0.471   0.423  -0.606  0.00  0.00    +0.023 A 
ATOM      5  C   UNL     1      -0.089   1.628  -1.226  0.00  0.00    +0.032 A 
ATOM      6  C   UNL     1      -1.016   2.651  -1.431  0.00  0.00    +0.042 A 
ATOM      7 CL   UNL     1      -0.517   4.146  -2.202  0.00  0.00    -0.084 Cl
ATOM      8  C   UNL     1      -2.339   2.484  -1.024  0.00  0.00    +0.022 A 
ATOM      9  C   UNL     1      -2.739   1.294  -0.416  0.00  0.00    +0.025 A 
ATOM     10  C   UNL     1       0.562  -0.633  -0.393  0.00  0.00    +0.075 C 
ATOM     11  N   UNL     1       0.324  -1.878  -0.696  0.00  0.00    -0.273 NA
ATOM     12  C   UNL     1      -0.938  -2.386  -1.218  0.00  0.00    +0.238 C 
ATOM     13  C   UNL     1      -1.996  -2.248  -0.169  0.00  0.00    +0.241 C 
ATOM     14  O   UNL     1      -2.640  -3.270   0.193  0.00  0.00    -0.273 OA
ENDROOT
BRANCH  10  15
ATOM     15  C   UNL     1       1.903  -0.277   0.139  0.00  0.00    +0.001 A 
ATOM     16  C   UNL     1       3.034  -1.043  -0.207  0.00  0.00    +0.010 A 
ATOM     17  C   UNL     1       4.295  -0.715   0.300  0.00  0.00    +0.001 A 
ATOM     18  C   UNL     1       4.442   0.374   1.162  0.00  0.00    +0.000 A 
ATOM     19  C   UNL     1       3.328   1.135   1.522  0.00  0.00    +0.001 A 
ATOM     20  C   UNL     1       2.064   0.812   1.018  0.00  0.00    +0.010 A 
ENDBRANCH  10  15
TORSDOF 1
