REMARK  Name = 
REMARK  1 active torsions:
REMARK  status: ('A' for Active; 'I' for Inactive)
REMARK    1  A    between atoms: C_1  and  C_2
REMARK                            x       y       z     vdW  Elec       q    Type
REMARK                         _______ _______ _______ _____ _____    ______ ____
ROOT
ATOM      1  C   UNL     1      -3.516   0.226  -0.626  0.00  0.00    +0.085 C 
ATOM      2  C   UNL     1      -2.049   0.452  -0.441  0.00  0.00    +0.118 C 
ATOM      3  N   UNL     1      -1.611   1.673  -0.368  0.00  0.00    -0.118 NA
ATOM      4  S   UNL     1       0.049   2.072  -0.131  0.00  0.00    +0.102 S 
ATOM      5  O   UNL     1       0.201   2.857   1.141  0.00  0.00    -0.146 OA
ATOM      6  O   UNL     1       0.547   2.870  -1.302  0.00  0.00    -0.146 OA
ATOM      7  C   UNL     1       0.936   0.578  -0.013  0.00  0.00    +0.135 A 
ATOM      8  C   UNL     1       0.247  -0.641  -0.105  0.00  0.00    +0.059 A 
ATOM      9  N   UNL     1      -1.179  -0.690  -0.298  0.00  0.00    -0.300 N 
ATOM     10  C   UNL     1       0.971  -1.841  -0.005  0.00  0.00    +0.027 A 
ATOM     11  C   UNL     1       2.356  -1.822   0.182  0.00  0.00    +0.022 A 
ATOM     12  C   UNL     1       3.034  -0.603   0.273  0.00  0.00    +0.043 A 
ATOM     13 CL   UNL     1       4.772  -0.580   0.509  0.00  0.00    -0.083 Cl
ATOM     14  C   UNL     1       2.324   0.597   0.176  0.00  0.00    +0.051 A 
ATOM     15  H   UNL     1      -1.629  -1.633  -0.345  0.00  0.00    +0.153 HD
ENDROOT
TORSDOF 0
