REMARK  Name = 
REMARK  13 active torsions:
REMARK  status: ('A' for Active; 'I' for Inactive)
REMARK    1  A    between atoms: C_1  and  C_2
REMARK    2  A    between atoms: C_2  and  C_3
REMARK    3  A    between atoms: C_3  and  C_4
REMARK    4  A    between atoms: C_4  and  O_5
REMARK    5  A    between atoms: O_5  and  C_6
REMARK    6  A    between atoms: C_14  and  C_16
REMARK    7  A    between atoms: N_18  and  C_19
REMARK    8  A    between atoms: C_19  and  C_20
REMARK    9  A    between atoms: C_20  and  N_21
REMARK   10  A    between atoms: N_21  and  C_22
REMARK   11  A    between atoms: N_21  and  C_24
REMARK   12  A    between atoms: C_22  and  C_23
REMARK   13  A    between atoms: C_24  and  C_25
REMARK                            x       y       z     vdW  Elec       q    Type
REMARK                         _______ _______ _______ _____ _____    ______ ____
ROOT
ATOM      1  C   UNL     1       2.888  -0.204  -0.624  0.00  0.00    +0.216 A 
ATOM      2  N   UNL     1       3.255  -1.431  -1.081  0.00  0.00    -0.213 NA
ATOM      3  C   UNL     1       2.446  -2.516  -0.962  0.00  0.00    +0.076 A 
ATOM      4  C   UNL     1       2.886  -3.758  -1.433  0.00  0.00    +0.028 A 
ATOM      5  C   UNL     1       2.082  -4.889  -1.285  0.00  0.00    +0.002 A 
ATOM      6  C   UNL     1       0.840  -4.788  -0.656  0.00  0.00    +0.001 A 
ATOM      7  C   UNL     1       0.387  -3.553  -0.183  0.00  0.00    +0.011 A 
ATOM      8  C   UNL     1       1.174  -2.393  -0.348  0.00  0.00    +0.013 A 
ATOM      9  C   UNL     1       0.763  -1.116   0.107  0.00  0.00    +0.051 A 
ATOM     10  C   UNL     1       1.643  -0.031  -0.019  0.00  0.00    +0.081 A 
ENDROOT
BRANCH   9  11
ATOM     11  C   UNL     1      -0.569  -0.867   0.696  0.00  0.00    +0.245 C 
ATOM     12  O   UNL     1      -0.652  -0.268   1.803  0.00  0.00    -0.270 OA
ATOM     13  N   UNL     1      -1.760  -1.250  -0.008  0.00  0.00    -0.310 N 
ATOM     14  H   UNL     1      -1.675  -1.696  -0.949  0.00  0.00    +0.149 HD
BRANCH  13  15
ATOM     15  C   UNL     1      -3.099  -1.062   0.549  0.00  0.00    +0.120 C 
BRANCH  15  16
ATOM     16  C   UNL     1      -3.547   0.397   0.386  0.00  0.00    +0.103 C 
BRANCH  16  17
ATOM     17  N   UNL     1      -4.753   0.687   1.194  0.00  0.00    -0.301 NA
BRANCH  17  18
ATOM     18  C   UNL     1      -6.009   0.045   0.739  0.00  0.00    +0.081 C 
ATOM     19  C   UNL     1      -6.617   0.666  -0.522  0.00  0.00    +0.020 C 
ENDBRANCH  17  18
BRANCH  17  20
ATOM     20  C   UNL     1      -4.900   2.099   1.623  0.00  0.00    +0.081 C 
ATOM     21  C   UNL     1      -4.569   3.137   0.537  0.00  0.00    +0.020 C 
ENDBRANCH  17  20
ENDBRANCH  16  17
ENDBRANCH  15  16
ENDBRANCH  13  15
ENDBRANCH   9  11
BRANCH   1  22
ATOM     22  O   UNL     1       3.744   0.893  -0.754  0.00  0.00    -0.476 OA
BRANCH  22  23
ATOM     23  C   UNL     1       5.032   0.800  -1.356  0.00  0.00    +0.231 C 
BRANCH  23  24
ATOM     24  C   UNL     1       5.726   2.165  -1.337  0.00  0.00    +0.041 C 
BRANCH  24  26
ATOM     25  C   UNL     1       6.908   1.949   0.917  0.00  0.00    +0.004 C 
ATOM     26  C   UNL     1       5.905   2.740   0.078  0.00  0.00    -0.000 C 
ENDBRANCH  24  26
ENDBRANCH  23  24
ENDBRANCH  22  23
ENDBRANCH   1  22
TORSDOF 10
