REMARK  Name = 
REMARK  4 active torsions:
REMARK  status: ('A' for Active; 'I' for Inactive)
REMARK    1  A    between atoms: N_1  and  S_2
REMARK    2  A    between atoms: S_2  and  C_5
REMARK    3  A    between atoms: C_7  and  S_13
REMARK    4  A    between atoms: S_13  and  N_14
REMARK                            x       y       z     vdW  Elec       q    Type
REMARK                         _______ _______ _______ _____ _____    ______ ____
ROOT
ATOM      1  C   UNL     1      -1.078   0.401   0.264  0.00  0.00    +0.108 A 
ATOM      2  C   UNL     1      -0.132  -0.617   0.103  0.00  0.00    +0.058 A 
ATOM      3  C   UNL     1       1.153  -0.332  -0.384  0.00  0.00    +0.126 A 
ATOM      4  C   UNL     1       1.492   1.002  -0.707  0.00  0.00    +0.086 A 
ATOM      5 CL   UNL     1       3.103   1.417  -1.299  0.00  0.00    -0.080 Cl
ATOM      6  C   UNL     1       0.533   2.020  -0.553  0.00  0.00    +0.063 A 
ATOM      7 CL   UNL     1       0.901   3.694  -0.951  0.00  0.00    -0.082 Cl
ATOM      8  C   UNL     1      -0.744   1.715  -0.074  0.00  0.00    +0.050 A 
ENDROOT
BRANCH   1   9
ATOM      9  S   UNL     1      -2.692   0.024   0.858  0.00  0.00    +0.056 S 
ATOM     10  O   UNL     1      -2.633  -1.164   1.777  0.00  0.00    -0.153 OA
ATOM     11  O   UNL     1      -3.239   1.197   1.623  0.00  0.00    -0.153 OA
BRANCH   9  12
ATOM     12  N   UNL     1      -3.728  -0.332  -0.479  0.00  0.00    -0.204 NA
ATOM     13  H   UNL     1      -3.774   0.530  -1.067  0.00  0.00    +0.144 HD
ATOM     14  H   UNL     1      -4.686  -0.484  -0.091  0.00  0.00    +0.144 HD
ENDBRANCH   9  12
ENDBRANCH   1   9
BRANCH   3  15
ATOM     15  S   UNL     1       2.317  -1.655  -0.556  0.00  0.00    +0.057 S 
ATOM     16  O   UNL     1       2.987  -1.579  -1.900  0.00  0.00    -0.153 OA
ATOM     17  O   UNL     1       1.610  -2.979  -0.455  0.00  0.00    -0.153 OA
BRANCH  15  18
ATOM     18  N   UNL     1       3.505  -1.561   0.697  0.00  0.00    -0.203 NA
ATOM     19  H   UNL     1       2.989  -1.523   1.604  0.00  0.00    +0.144 HD
ATOM     20  H   UNL     1       3.997  -0.646   0.592  0.00  0.00    +0.144 HD
ENDBRANCH  15  18
ENDBRANCH   3  15
TORSDOF 4
