REMARK  Name = 
REMARK  5 active torsions:
REMARK  status: ('A' for Active; 'I' for Inactive)
REMARK    1  A    between atoms: O_1  and  C_2
REMARK    2  A    between atoms: C_2  and  C_4
REMARK    3  A    between atoms: C_4  and  C_5
REMARK    4  A    between atoms: C_10  and  N_11
REMARK    5  A    between atoms: N_11  and  C_12
REMARK                            x       y       z     vdW  Elec       q    Type
REMARK                         _______ _______ _______ _____ _____    ______ ____
ROOT
ATOM      1  C   UNL     1      -2.051   0.035  -0.121  0.00  0.00    -0.016 A 
ATOM      2  C   UNL     1      -3.061  -0.875  -0.485  0.00  0.00    +0.006 A 
ATOM      3  C   UNL     1      -2.736  -2.125  -1.014  0.00  0.00    +0.000 A 
ATOM      4  C   UNL     1      -1.400  -2.480  -1.197  0.00  0.00    +0.002 A 
ATOM      5  C   UNL     1      -0.385  -1.586  -0.855  0.00  0.00    +0.023 A 
ATOM      6  C   UNL     1      -0.692  -0.321  -0.316  0.00  0.00    +0.035 A 
ENDROOT
BRANCH   6   7
ATOM      7  N   UNL     1       0.367   0.603   0.004  0.00  0.00    -0.312 N 
ATOM      8  H   UNL     1       0.200   1.625  -0.124  0.00  0.00    +0.152 HD
BRANCH   7   9
ATOM      9  C   UNL     1       1.706   0.188   0.319  0.00  0.00    +0.068 A 
ATOM     10  C   UNL     1       1.957  -0.689   1.397  0.00  0.00    +0.063 A 
ATOM     11 CL   UNL     1       0.661  -1.265   2.438  0.00  0.00    -0.082 Cl
ATOM     12  C   UNL     1       3.269  -1.080   1.687  0.00  0.00    +0.022 A 
ATOM     13  C   UNL     1       4.333  -0.598   0.923  0.00  0.00    +0.003 A 
ATOM     14  C   UNL     1       4.094   0.285  -0.132  0.00  0.00    +0.022 A 
ATOM     15  C   UNL     1       2.788   0.684  -0.433  0.00  0.00    +0.063 A 
ATOM     16 CL   UNL     1       2.526   1.779  -1.785  0.00  0.00    -0.082 Cl
ENDBRANCH   7   9
ENDBRANCH   6   7
BRANCH   1  17
ATOM     17  C   UNL     1      -2.455   1.371   0.454  0.00  0.00    +0.157 C 
BRANCH  17  18
ATOM     18  C   UNL     1      -2.603   2.388  -0.634  0.00  0.00    +0.309 C 
ATOM     19  O   UNL     1      -3.576   2.320  -1.433  0.00  0.00    -0.251 OA
BRANCH  18  20
ATOM     20  O   UNL     1      -1.663   3.404  -0.771  0.00  0.00    -0.480 OA
ATOM     21  H   UNL     1      -1.748   4.095  -1.508  0.00  0.00    +0.295 HD
ENDBRANCH  18  20
ENDBRANCH  17  18
ENDBRANCH   1  17
TORSDOF 5
