REMARK  Name = 
REMARK  8 active torsions:
REMARK  status: ('A' for Active; 'I' for Inactive)
REMARK    1  A    between atoms: C_3  and  C_4
REMARK    2  A    between atoms: C_3  and  C_5
REMARK    3  A    between atoms: CA_6  and  C_28
REMARK    4  A    between atoms: CA_10  and  N_11
REMARK    5  A    between atoms: C_12  and  C_14
REMARK    6  A    between atoms: C_15  and  C_16
REMARK    7  A    between atoms: C_19  and  C_20
REMARK    8  A    between atoms: C_28  and  O_29
REMARK                            x       y       z     vdW  Elec       q    Type
REMARK                         _______ _______ _______ _____ _____    ______ ____
ROOT
ATOM      1  N   UNL     1       0.242   1.299   1.256  0.00  0.00    -0.298 N 
ATOM      2  C   UNL     1       1.193   2.270   0.794  0.00  0.00    +0.250 C 
ATOM      3  O   UNL     1       0.788   3.339   0.261  0.00  0.00    -0.270 OA
ATOM      4  H   UNL     1       0.585   0.466   1.784  0.00  0.00    +0.150 HD
ENDROOT
BRANCH   1  14
ATOM      5  C   UNL     1      -1.854   1.208  -0.010  0.00  0.00    +0.165 C 
ATOM      6  S   UNL     1      -0.895   0.382  -1.326  0.00  0.00    -0.127 S 
ATOM      7  C   UNL     1      -2.188  -0.940  -1.487  0.00  0.00    +0.042 C 
ATOM      8  C   UNL     1      -3.185  -0.477  -2.569  0.00  0.00    +0.025 C 
ATOM      9  C   UNL     1      -1.518  -2.246  -1.937  0.00  0.00    +0.025 C 
ATOM     10  CA  UNL     1      -2.842  -1.111  -0.078  0.00  0.00    +0.201 C 
ATOM     11  N   UNL     1      -2.592   0.140   0.591  0.00  0.00    -0.271 N 
ATOM     12  C   UNL     1      -1.994   0.497   1.897  0.00  0.00    +0.240 C 
ATOM     13  O   UNL     1      -2.072   0.043   3.068  0.00  0.00    -0.273 OA
ATOM     14  CA  UNL     1      -1.197   1.572   1.225  0.00  0.00    +0.190 C 
BRANCH  10  15
ATOM     15  C   UNL     1      -4.310  -1.440  -0.086  0.00  0.00    +0.327 C 
ATOM     16  OXT UNL     1      -5.175  -0.525  -0.018  0.00  0.00    -0.249 OA
BRANCH  15  17
ATOM     17  O   UNL     1      -4.714  -2.765  -0.216  0.00  0.00    -0.479 OA
ATOM     18  H   UNL     1      -5.697  -3.008  -0.242  0.00  0.00    +0.295 HD
ENDBRANCH  15  17
ENDBRANCH  10  15
ENDBRANCH   1  14
BRANCH   2  19
ATOM     19  C   UNL     1       2.643   2.061   0.981  0.00  0.00    +0.106 A 
ATOM     20  C   UNL     1       3.611   3.022   1.211  0.00  0.00    +0.147 A 
ATOM     21  C   UNL     1       3.413   4.500   1.298  0.00  0.00    +0.090 C 
ATOM     22  O   UNL     1       4.772   2.426   1.351  0.00  0.00    -0.359 OA
ATOM     23  N   UNL     1       4.658   1.135   1.226  0.00  0.00    -0.077 NA
ATOM     24  C   UNL     1       3.356   0.873   0.999  0.00  0.00    +0.128 A 
BRANCH  24  25
ATOM     25  C   UNL     1       2.850  -0.475   0.689  0.00  0.00    +0.041 A 
ATOM     26  C   UNL     1       2.722  -1.438   1.710  0.00  0.00    +0.052 A 
ATOM     27 CL   UNL     1       3.124  -1.061   3.382  0.00  0.00    -0.083 Cl
ATOM     28  C   UNL     1       2.240  -2.716   1.407  0.00  0.00    +0.021 A 
ATOM     29  C   UNL     1       1.900  -3.048   0.095  0.00  0.00    +0.003 A 
ATOM     30  C   UNL     1       2.040  -2.104  -0.924  0.00  0.00    +0.021 A 
ATOM     31  C   UNL     1       2.511  -0.819  -0.636  0.00  0.00    +0.052 A 
ATOM     32 CL   UNL     1       2.702   0.323  -1.964  0.00  0.00    -0.083 Cl
ENDBRANCH  24  25
ENDBRANCH   2  19
TORSDOF 5
