REMARK  Name = 
REMARK  4 active torsions:
REMARK  status: ('A' for Active; 'I' for Inactive)
REMARK    1  A    between atoms: O_1  and  C_2
REMARK    2  A    between atoms: C_3  and  C_4
REMARK    3  A    between atoms: C_4  and  C_5
REMARK    4  A    between atoms: C_6  and  O_7
REMARK                            x       y       z     vdW  Elec       q    Type
REMARK                         _______ _______ _______ _____ _____    ______ ____
ROOT
ATOM      1  C   UNL     1       0.126  -1.261  -1.583  0.00  0.00    +0.092 C 
ENDROOT
BRANCH   1   3
ATOM      2  C   UNL     1      -2.187  -1.052  -0.442  0.00  0.00    +0.138 A 
ATOM      3  C   UNL     1      -1.085  -0.460  -1.116  0.00  0.00    +0.084 A 
ATOM      4  C   UNL     1      -1.149   0.928  -1.382  0.00  0.00    +0.344 A 
ATOM      5  O   UNL     1      -0.244   1.498  -2.046  0.00  0.00    -0.245 OA
ATOM      6  O   UNL     1      -2.165   1.661  -0.942  0.00  0.00    -0.422 OA
ATOM      7  C   UNL     1      -3.177   1.153  -0.255  0.00  0.00    +0.143 A 
ATOM      8  C   UNL     1      -3.229  -0.229   0.021  0.00  0.00    +0.059 A 
ATOM      9  C   UNL     1      -4.325  -0.748   0.737  0.00  0.00    +0.015 A 
ATOM     10  C   UNL     1      -5.344   0.103   1.175  0.00  0.00    +0.001 A 
ATOM     11  C   UNL     1      -5.283   1.472   0.902  0.00  0.00    +0.004 A 
ATOM     12  C   UNL     1      -4.203   1.996   0.188  0.00  0.00    +0.047 A 
BRANCH   2  13
ATOM     13  O   UNL     1      -2.292  -2.432  -0.226  0.00  0.00    -0.506 OA
ATOM     14  H   UNL     1      -1.695  -3.131  -0.641  0.00  0.00    +0.292 HD
ENDBRANCH   2  13
ENDBRANCH   1   3
BRANCH   1  15
ATOM     15  C   UNL     1       1.433  -0.686  -1.061  0.00  0.00    +0.084 A 
ATOM     16  C   UNL     1       1.765  -0.735   0.314  0.00  0.00    +0.138 A 
ATOM     17  C   UNL     1       2.968  -0.158   0.751  0.00  0.00    +0.059 A 
ATOM     18  C   UNL     1       3.822   0.435  -0.203  0.00  0.00    +0.143 A 
ATOM     19  O   UNL     1       3.488   0.443  -1.487  0.00  0.00    -0.422 OA
ATOM     20  C   UNL     1       2.358  -0.083  -1.944  0.00  0.00    +0.344 A 
ATOM     21  O   UNL     1       2.124  -0.030  -3.181  0.00  0.00    -0.245 OA
ATOM     22  C   UNL     1       5.029   1.016   0.201  0.00  0.00    +0.047 A 
ATOM     23  C   UNL     1       5.394   1.010   1.550  0.00  0.00    +0.004 A 
ATOM     24  C   UNL     1       4.554   0.424   2.500  0.00  0.00    +0.001 A 
ATOM     25  C   UNL     1       3.346  -0.160   2.107  0.00  0.00    +0.015 A 
BRANCH  16  26
ATOM     26  O   UNL     1       0.930  -1.351   1.252  0.00  0.00    -0.506 OA
ATOM     27  H   UNL     1       0.080  -1.840   1.009  0.00  0.00    +0.292 HD
ENDBRANCH  16  26
ENDBRANCH   1  15
TORSDOF 4
