REMARK  Name = 
REMARK  10 active torsions:
REMARK  status: ('A' for Active; 'I' for Inactive)
REMARK    1  A    between atoms: C_1  and  C_2
REMARK    2  A    between atoms: C_2  and  N_3
REMARK    3  A    between atoms: N_3  and  C_4
REMARK    4  A    between atoms: N_3  and  C_6
REMARK    5  A    between atoms: C_4  and  C_5
REMARK    6  A    between atoms: C_6  and  C_7
REMARK    7  A    between atoms: C_7  and  O_8
REMARK    8  A    between atoms: O_8  and  C_9
REMARK    9  A    between atoms: C_9  and  C_11
REMARK   10  A    between atoms: C_11  and  C_17
REMARK                            x       y       z     vdW  Elec       q    Type
REMARK                         _______ _______ _______ _____ _____    ______ ____
ROOT
ATOM      1  C   UNL     1      -1.514   0.421   0.301  0.00  0.00    +0.071 C 
ATOM      2  C   UNL     1      -2.109   1.053   1.610  0.00  0.00    +0.018 C 
ATOM      3  C   UNL     1      -1.545   2.456   1.874  0.00  0.00    +0.001 C 
ATOM      4  C   UNL     1      -1.921   3.445   0.753  0.00  0.00    +0.000 C 
ATOM      5  C   UNL     1      -2.216   2.758  -0.593  0.00  0.00    +0.001 C 
ATOM      6  C   UNL     1      -1.322   1.526  -0.802  0.00  0.00    +0.018 C 
ENDROOT
BRANCH   1   7
ATOM      7  C   UNL     1      -2.420  -0.763  -0.227  0.00  0.00    +0.006 C 
ATOM      8  C   UNL     1      -2.623  -1.875   0.838  0.00  0.00    +0.004 C 
ATOM      9  C   UNL     1      -3.398  -3.066   0.261  0.00  0.00    +0.000 C 
ATOM     10  C   UNL     1      -4.754  -2.618  -0.292  0.00  0.00    +0.000 C 
ATOM     11  C   UNL     1      -4.577  -1.526  -1.350  0.00  0.00    +0.000 C 
ATOM     12  C   UNL     1      -3.801  -0.327  -0.787  0.00  0.00    +0.004 C 
ENDBRANCH   1   7
BRANCH   1  13
ATOM     13  C   UNL     1      -0.127  -0.159   0.575  0.00  0.00    +0.314 C 
ATOM     14  O   UNL     1       0.346  -0.200   1.746  0.00  0.00    -0.250 OA
BRANCH  13  15
ATOM     15  O   UNL     1       0.617  -0.672  -0.496  0.00  0.00    -0.463 OA
BRANCH  15  16
ATOM     16  C   UNL     1       1.951  -1.157  -0.364  0.00  0.00    +0.247 C 
BRANCH  16  17
ATOM     17  C   UNL     1       2.935   0.007  -0.246  0.00  0.00    +0.125 C 
BRANCH  17  18
ATOM     18  N   UNL     1       4.311  -0.526  -0.117  0.00  0.00    -0.300 NA
BRANCH  18  20
ATOM     19  C   UNL     1       5.306   1.176   1.464  0.00  0.00    +0.020 C 
ATOM     20  C   UNL     1       4.902  -0.286   1.220  0.00  0.00    +0.081 C 
ENDBRANCH  18  20
BRANCH  18  21
ATOM     21  C   UNL     1       5.207  -0.125  -1.224  0.00  0.00    +0.081 C 
ATOM     22  C   UNL     1       4.896  -0.924  -2.488  0.00  0.00    +0.020 C 
ENDBRANCH  18  21
ENDBRANCH  17  18
ENDBRANCH  16  17
ENDBRANCH  15  16
ENDBRANCH  13  15
ENDBRANCH   1  13
TORSDOF 8
