REMARK  Name = 
REMARK  3 active torsions:
REMARK  status: ('A' for Active; 'I' for Inactive)
REMARK    1  A    between atoms: O_1  and  C_2
REMARK    2  A    between atoms: C_2  and  C_3
REMARK    3  A    between atoms: C_6  and  N_8
REMARK                            x       y       z     vdW  Elec       q    Type
REMARK                         _______ _______ _______ _____ _____    ______ ____
ROOT
ATOM      1  N   UNL     1      -0.780  -0.420  -0.136  0.00  0.00    -0.289 N 
ATOM      2  C   UNL     1      -0.537  -1.584   0.524  0.00  0.00    +0.203 A 
ATOM      3  N   UNL     1      -1.642  -2.107   1.125  0.00  0.00    -0.229 NA
ATOM      4  C   UNL     1      -2.596  -1.208   0.823  0.00  0.00    +0.172 A 
ATOM      5  C   UNL     1      -2.085  -0.198   0.081  0.00  0.00    +0.147 A 
ATOM      6  N   UNL     1      -2.832   0.865  -0.315  0.00  0.00    -0.330 N 
ATOM      7  C   UNL     1      -4.153   0.890   0.040  0.00  0.00    +0.202 A 
ATOM      8  N   UNL     1      -4.693  -0.128   0.785  0.00  0.00    -0.198 NA
ATOM      9  C   UNL     1      -3.934  -1.187   1.192  0.00  0.00    +0.301 A 
ATOM     10  O   UNL     1      -4.438  -2.111   1.883  0.00  0.00    -0.263 OA
ATOM     11  H   UNL     1      -2.421   1.645  -0.873  0.00  0.00    +0.168 HD
ENDROOT
BRANCH   1  15
ATOM     12  C   UNL     1       2.454   0.188  -0.765  0.00  0.00    +0.146 C 
ATOM     13  C   UNL     1       2.110   0.981   0.485  0.00  0.00    +0.038 C 
ATOM     14  C   UNL     1       0.736   1.488   0.178  0.00  0.00    +0.057 C 
ATOM     15  C   UNL     1       0.191   0.454  -0.801  0.00  0.00    +0.222 C 
ATOM     16  O   UNL     1       1.258  -0.319  -1.313  0.00  0.00    -0.351 OA
BRANCH  12  17
ATOM     17  C   UNL     1       3.424  -0.965  -0.478  0.00  0.00    +0.187 C 
BRANCH  17  18
ATOM     18  O   UNL     1       4.669  -0.472  -0.062  0.00  0.00    -0.392 OA
ATOM     19  H   UNL     1       4.603  -0.315   0.916  0.00  0.00    +0.210 HD
ENDBRANCH  17  18
ENDBRANCH  12  17
ENDBRANCH   1  15
TORSDOF 3
