REMARK  Name = 
REMARK  7 active torsions:
REMARK  status: ('A' for Active; 'I' for Inactive)
REMARK    1  A    between atoms: C_1  and  C_2
REMARK    2  A    between atoms: C_3  and  C_4
REMARK    3  A    between atoms: C_3  and  C_14
REMARK    4  A    between atoms: C_4  and  C_7
REMARK    5  A    between atoms: C_5  and  C_6
REMARK    6  A    between atoms: C_10  and  O_11
REMARK    7  A    between atoms: C_17  and  O_18
REMARK                            x       y       z     vdW  Elec       q    Type
REMARK                         _______ _______ _______ _____ _____    ______ ____
ROOT
ATOM      1  C   UNL     1      -1.440   2.762  -0.959  0.00  0.00    +0.036 C 
ATOM      2  C   UNL     1      -0.425   1.653  -0.972  0.00  0.00    -0.021 C 
ATOM      3  C   UNL     1      -0.634   0.432  -0.429  0.00  0.00    -0.015 C 
ENDROOT
BRANCH   3   4
ATOM      4  C   UNL     1      -1.941   0.098   0.197  0.00  0.00    -0.017 A 
ATOM      5  C   UNL     1      -3.122   0.068  -0.567  0.00  0.00    +0.012 A 
ATOM      6  C   UNL     1      -4.343  -0.245   0.035  0.00  0.00    +0.046 A 
ATOM      7  C   UNL     1      -4.397  -0.556   1.397  0.00  0.00    +0.117 A 
ATOM      8  C   UNL     1      -3.220  -0.554   2.158  0.00  0.00    +0.046 A 
ATOM      9  C   UNL     1      -1.997  -0.233   1.561  0.00  0.00    +0.012 A 
BRANCH   7  10
ATOM     10  O   UNL     1      -5.623  -0.868   1.982  0.00  0.00    -0.507 OA
ATOM     11  H   UNL     1      -5.693  -1.115   2.962  0.00  0.00    +0.292 HD
ENDBRANCH   7  10
ENDBRANCH   3   4
BRANCH   3  12
ATOM     12  C   UNL     1       0.473  -0.576  -0.386  0.00  0.00    -0.015 C 
ATOM     13  C   UNL     1       0.199  -1.894  -0.290  0.00  0.00    -0.021 C 
ATOM     14  C   UNL     1       1.264  -2.949  -0.200  0.00  0.00    +0.036 C 
BRANCH  12  15
ATOM     15  C   UNL     1       1.882  -0.117  -0.415  0.00  0.00    -0.017 A 
ATOM     16  C   UNL     1       2.538   0.208   0.781  0.00  0.00    +0.012 A 
ATOM     17  C   UNL     1       3.868   0.640   0.755  0.00  0.00    +0.046 A 
ATOM     18  C   UNL     1       4.545   0.757  -0.466  0.00  0.00    +0.117 A 
ATOM     19  C   UNL     1       3.891   0.433  -1.660  0.00  0.00    +0.046 A 
ATOM     20  C   UNL     1       2.563  -0.005  -1.637  0.00  0.00    +0.012 A 
BRANCH  18  21
ATOM     21  O   UNL     1       5.867   1.197  -0.505  0.00  0.00    -0.507 OA
ATOM     22  H   UNL     1       6.364   1.447   0.342  0.00  0.00    +0.292 HD
ENDBRANCH  18  21
ENDBRANCH  12  15
ENDBRANCH   3  12
TORSDOF 5
