REMARK  Name = 
REMARK  8 active torsions:
REMARK  status: ('A' for Active; 'I' for Inactive)
REMARK    1  A    between atoms: C_1  and  C_2
REMARK    2  A    between atoms: C_2  and  C_3
REMARK    3  A    between atoms: C_3  and  C_14
REMARK    4  A    between atoms: C_4  and  C_5
REMARK    5  A    between atoms: C_4  and  C_7
REMARK    6  A    between atoms: C_5  and  C_6
REMARK    7  A    between atoms: C_10  and  O_11
REMARK    8  A    between atoms: C_17  and  O_18
REMARK                            x       y       z     vdW  Elec       q    Type
REMARK                         _______ _______ _______ _____ _____    ______ ____
ROOT
ATOM      1  C   UNL     1      -0.772  -0.900   0.566  0.00  0.00    -0.037 C 
ATOM      2  C   UNL     1      -0.212  -1.207  -0.639  0.00  0.00    -0.037 C 
ENDROOT
BRANCH   2   3
ATOM      3  C   UNL     1       0.564  -0.192  -1.395  0.00  0.00    -0.021 A 
ATOM      4  C   UNL     1       1.919  -0.413  -1.686  0.00  0.00    +0.012 A 
ATOM      5  C   UNL     1       2.653   0.546  -2.392  0.00  0.00    +0.046 A 
ATOM      6  C   UNL     1       2.037   1.731  -2.817  0.00  0.00    +0.117 A 
ATOM      7  C   UNL     1       0.685   1.950  -2.536  0.00  0.00    +0.046 A 
ATOM      8  C   UNL     1      -0.051   0.993  -1.831  0.00  0.00    +0.012 A 
BRANCH   6   9
ATOM      9  O   UNL     1       2.759   2.694  -3.519  0.00  0.00    -0.507 OA
ATOM     10  H   UNL     1       3.740   2.564  -3.738  0.00  0.00    +0.292 HD
ENDBRANCH   6   9
ENDBRANCH   2   3
BRANCH   1  11
ATOM     11  C   UNL     1      -0.471   0.391   1.235  0.00  0.00    -0.021 A 
ATOM     12  C   UNL     1       0.845   0.707   1.613  0.00  0.00    +0.012 A 
ATOM     13  C   UNL     1       1.125   1.927   2.235  0.00  0.00    +0.046 A 
ATOM     14  C   UNL     1       0.097   2.839   2.490  0.00  0.00    +0.117 A 
ATOM     15  C   UNL     1      -1.219   2.526   2.121  0.00  0.00    +0.046 A 
ATOM     16  C   UNL     1      -1.502   1.306   1.499  0.00  0.00    +0.012 A 
BRANCH  14  17
ATOM     17  O   UNL     1       0.391   4.052   3.108  0.00  0.00    -0.507 OA
ATOM     18  H   UNL     1      -0.332   4.734   3.306  0.00  0.00    +0.292 HD
ENDBRANCH  14  17
ENDBRANCH   1  11
BRANCH   1  20
ATOM     19  C   UNL     1      -0.766  -2.718   2.288  0.00  0.00    +0.009 C 
ATOM     20  C   UNL     1      -1.626  -1.878   1.348  0.00  0.00    +0.032 C 
ENDBRANCH   1  20
BRANCH   2  21
ATOM     21  C   UNL     1      -0.435  -2.536  -1.332  0.00  0.00    +0.032 C 
ATOM     22  C   UNL     1      -1.658  -2.474  -2.243  0.00  0.00    +0.009 C 
ENDBRANCH   2  21
TORSDOF 6
