REMARK  Name = 
REMARK  8 active torsions:
REMARK  status: ('A' for Active; 'I' for Inactive)
REMARK    1  A    between atoms: C_1  and  C_2
REMARK    2  A    between atoms: C_2  and  N_3
REMARK    3  A    between atoms: N_3  and  C_4
REMARK    4  A    between atoms: N_3  and  C_6
REMARK    5  A    between atoms: C_4  and  C_5
REMARK    6  A    between atoms: C_6  and  C_7
REMARK    7  A    between atoms: C_6  and  C_8
REMARK    8  A    between atoms: C_8  and  C_10
REMARK                            x       y       z     vdW  Elec       q    Type
REMARK                         _______ _______ _______ _____ _____    ______ ____
ROOT
ATOM      1  C   UNL     1       0.643  -0.467   0.505  0.00  0.00    +0.180 C 
ATOM      2  O   UNL     1       0.183  -1.190   1.432  0.00  0.00    -0.290 OA
ENDROOT
BRANCH   1   3
ATOM      3  C   UNL     1       2.121  -0.394   0.330  0.00  0.00    +0.019 A 
ATOM      4  C   UNL     1       2.935  -1.412   0.864  0.00  0.00    +0.011 A 
ATOM      5  C   UNL     1       4.325  -1.365   0.718  0.00  0.00    +0.001 A 
ATOM      6  C   UNL     1       4.922  -0.300   0.042  0.00  0.00    +0.000 A 
ATOM      7  C   UNL     1       4.131   0.721  -0.487  0.00  0.00    +0.001 A 
ATOM      8  C   UNL     1       2.741   0.680  -0.344  0.00  0.00    +0.011 A 
ENDBRANCH   1   3
BRANCH   1   9
ATOM      9  C   UNL     1      -0.325   0.293  -0.387  0.00  0.00    +0.125 C 
ATOM     10  C   UNL     1      -0.194  -0.159  -1.859  0.00  0.00    +0.032 C 
BRANCH   9  11
ATOM     11  N   UNL     1      -1.720   0.187   0.131  0.00  0.00    -0.293 NA
BRANCH  11  13
ATOM     12  C   UNL     1      -3.383  -1.462   0.919  0.00  0.00    +0.020 C 
ATOM     13  C   UNL     1      -2.392  -1.096  -0.183  0.00  0.00    +0.082 C 
ENDBRANCH  11  13
BRANCH  11  14
ATOM     14  C   UNL     1      -2.547   1.361  -0.236  0.00  0.00    +0.082 C 
ATOM     15  C   UNL     1      -2.474   2.410   0.869  0.00  0.00    +0.020 C 
ENDBRANCH  11  14
ENDBRANCH   9  11
ENDBRANCH   1   9
TORSDOF 5
