REMARK  Name = 
REMARK  5 active torsions:
REMARK  status: ('A' for Active; 'I' for Inactive)
REMARK    1  A    between atoms: C_1  and  C_2
REMARK    2  A    between atoms: C_2  and  N_3
REMARK    3  A    between atoms: N_3  and  C_4
REMARK    4  A    between atoms: C_4  and  C_5
REMARK    5  A    between atoms: N_11  and  C_12
REMARK                            x       y       z     vdW  Elec       q    Type
REMARK                         _______ _______ _______ _____ _____    ______ ____
ROOT
ATOM      1  N   UNL     1      -1.939   0.342   0.265  0.00  0.00    -0.286 N 
ATOM      2  C   UNL     1      -0.934  -0.145   1.176  0.00  0.00    +0.305 C 
ATOM      3  O   UNL     1      -1.280  -0.711   2.250  0.00  0.00    -0.252 OA
ATOM      4  N   UNL     1       0.461   0.001   0.871  0.00  0.00    -0.283 N 
ATOM      5  C   UNL     1       1.357  -1.140   1.096  0.00  0.00    +0.124 C 
ATOM      6  C   UNL     1       2.611  -1.085   0.194  0.00  0.00    +0.103 C 
ATOM      7  N   UNL     1       2.742   0.197  -0.532  0.00  0.00    -0.302 NA
ATOM      8  C   UNL     1       4.083   0.308  -1.126  0.00  0.00    +0.105 C 
ATOM      9  C   UNL     1       2.488   1.329   0.373  0.00  0.00    +0.103 C 
ATOM     10  C   UNL     1       1.002   1.359   0.731  0.00  0.00    +0.124 C 
ENDROOT
BRANCH   1  12
ATOM     11  C   UNL     1      -1.687  -1.272  -1.593  0.00  0.00    +0.024 C 
ATOM     12  C   UNL     1      -1.755   0.200  -1.188  0.00  0.00    +0.106 C 
ENDBRANCH   1  12
BRANCH   1  13
ATOM     13  C   UNL     1      -3.203   0.871   0.794  0.00  0.00    +0.106 C 
ATOM     14  C   UNL     1      -4.275  -0.215   0.824  0.00  0.00    +0.024 C 
ENDBRANCH   1  13
TORSDOF 2
