REMARK  Name = 
REMARK  9 active torsions:
REMARK  status: ('A' for Active; 'I' for Inactive)
REMARK    1  A    between atoms: O_1  and  C_2
REMARK    2  A    between atoms: C_2  and  C_4
REMARK    3  A    between atoms: C_4  and  C_27
REMARK    4  A    between atoms: N_7  and  C_8
REMARK    5  A    between atoms: C_8  and  C_9
REMARK    6  A    between atoms: C_9  and  C_10
REMARK    7  A    between atoms: C_10  and  C_11
REMARK    8  A    between atoms: C_10  and  C_13
REMARK    9  A    between atoms: C_10  and  C_19
REMARK                            x       y       z     vdW  Elec       q    Type
REMARK                         _______ _______ _______ _____ _____    ______ ____
ROOT
ATOM      1  C   UNL     1      -0.531   0.339   0.133  0.00  0.00    +0.086 C 
ENDROOT
BRANCH   1   5
ATOM      2  C   UNL     1       3.575   0.015   0.183  0.00  0.00    +0.095 C 
ATOM      3  C   UNL     1       2.867  -1.011  -0.765  0.00  0.00    +0.038 C 
ATOM      4  C   UNL     1       1.368  -1.107  -0.455  0.00  0.00    +0.086 C 
ATOM      5  N   UNL     1       0.652   0.166  -0.741  0.00  0.00    -0.302 NA
ATOM      6  C   UNL     1       1.535   1.361  -0.707  0.00  0.00    +0.086 C 
ATOM      7  C   UNL     1       2.617   1.254   0.380  0.00  0.00    +0.038 C 
BRANCH   2   8
ATOM      8  C   UNL     1       4.951   0.462  -0.359  0.00  0.00    -0.031 A 
ATOM      9  C   UNL     1       5.598  -0.189  -1.439  0.00  0.00    +0.005 A 
ATOM     10  C   UNL     1       6.863   0.221  -1.872  0.00  0.00    +0.000 A 
ATOM     11  C   UNL     1       7.524   1.262  -1.224  0.00  0.00    +0.000 A 
ATOM     12  C   UNL     1       6.932   1.885  -0.128  0.00  0.00    +0.000 A 
ATOM     13  C   UNL     1       5.668   1.482   0.311  0.00  0.00    +0.005 A 
ENDBRANCH   2   8
BRANCH   2  14
ATOM     14  C   UNL     1       3.844  -0.653   1.528  0.00  0.00    +0.315 C 
ATOM     15  O   UNL     1       3.875   0.031   2.589  0.00  0.00    -0.250 OA
BRANCH  14  16
ATOM     16  O   UNL     1       4.160  -2.008   1.593  0.00  0.00    -0.480 OA
ATOM     17  H   UNL     1       4.374  -2.451   2.479  0.00  0.00    +0.295 HD
ENDBRANCH  14  16
ENDBRANCH   2  14
ENDBRANCH   1   5
BRANCH   1  18
ATOM     18  C   UNL     1      -1.626  -0.702  -0.196  0.00  0.00    +0.046 C 
BRANCH  18  19
ATOM     19  C   UNL     1      -2.937  -0.539   0.635  0.00  0.00    +0.108 C 
BRANCH  19  20
ATOM     20  C   UNL     1      -4.010  -1.589   0.290  0.00  0.00    -0.023 A 
ATOM     21  C   UNL     1      -3.819  -2.606  -0.676  0.00  0.00    +0.005 A 
ATOM     22  C   UNL     1      -4.834  -3.528  -0.951  0.00  0.00    +0.000 A 
ATOM     23  C   UNL     1      -6.052  -3.458  -0.275  0.00  0.00    +0.000 A 
ATOM     24  C   UNL     1      -6.261  -2.464   0.679  0.00  0.00    +0.000 A 
ATOM     25  C   UNL     1      -5.253  -1.539   0.961  0.00  0.00    +0.005 A 
ENDBRANCH  19  20
BRANCH  19  26
ATOM     26  C   UNL     1      -3.522   0.862   0.384  0.00  0.00    -0.023 A 
ATOM     27  C   UNL     1      -3.441   1.905   1.337  0.00  0.00    +0.005 A 
ATOM     28  C   UNL     1      -3.955   3.173   1.053  0.00  0.00    +0.000 A 
ATOM     29  C   UNL     1      -4.547   3.430  -0.184  0.00  0.00    +0.000 A 
ATOM     30  C   UNL     1      -4.619   2.421  -1.145  0.00  0.00    +0.000 A 
ATOM     31  C   UNL     1      -4.106   1.151  -0.869  0.00  0.00    +0.005 A 
ENDBRANCH  19  26
BRANCH  19  32
ATOM     32  C   UNL     1      -2.594  -0.758   2.061  0.00  0.00    +0.079 C 
ATOM     33  N   UNL     1      -2.325  -0.932   3.174  0.00  0.00    -0.195 NA
ENDBRANCH  19  32
ENDBRANCH  18  19
ENDBRANCH   1  18
TORSDOF 9
