REMARK  Name = 
REMARK  8 active torsions:
REMARK  status: ('A' for Active; 'I' for Inactive)
REMARK    1  A    between atoms: C_3  and  C_4
REMARK    2  A    between atoms: C_5  and  O_6
REMARK    3  A    between atoms: C_5  and  C_7
REMARK    4  A    between atoms: C_7  and  C_9
REMARK    5  A    between atoms: C_9  and  O_10
REMARK    6  A    between atoms: C_11  and  C_12
REMARK    7  A    between atoms: C_14  and  O_15
REMARK    8  A    between atoms: C_28  and  C_29
REMARK                            x       y       z     vdW  Elec       q    Type
REMARK                         _______ _______ _______ _____ _____    ______ ____
ROOT
ATOM      1  C   UNL     1       0.615  -1.012  -0.138  0.00  0.00    +0.005 C 
ATOM      2  C   UNL     1       1.416  -2.203   0.367  0.00  0.00    +0.011 C 
ATOM      3  C   UNL     1       2.872  -1.860  -0.024  0.00  0.00    +0.026 C 
ATOM      4  C   UNL     1       3.866  -2.392   1.019  0.00  0.00    +0.011 C 
ATOM      5  C   UNL     1       2.896  -0.311  -0.371  0.00  0.00    +0.134 C 
ATOM      6  C   UNL     1       1.509   0.201   0.159  0.00  0.00    +0.010 C 
ATOM      7  C   UNL     1       1.606   0.528   1.690  0.00  0.00    +0.015 C 
ATOM      8  C   UNL     1       0.920   1.421  -0.601  0.00  0.00    +0.044 C 
ATOM      9  C   UNL     1      -0.573   1.689  -0.253  0.00  0.00    +0.154 C 
ATOM     10  C   UNL     1      -1.476   0.408  -0.404  0.00  0.00    +0.153 C 
ATOM     11  F   UNL     1      -1.470   0.114  -1.765  0.00  0.00    -0.238 F 
ATOM     12  C   UNL     1      -0.849  -0.834   0.336  0.00  0.00    +0.037 C 
ATOM     13  C   UNL     1      -1.665  -2.113   0.047  0.00  0.00    +0.048 C 
ATOM     14  C   UNL     1      -3.131  -1.950   0.447  0.00  0.00    +0.194 C 
ATOM     15  F   UNL     1      -3.811  -3.114   0.122  0.00  0.00    -0.241 F 
ATOM     16  C   UNL     1      -3.716  -0.731  -0.234  0.00  0.00    -0.020 C 
ATOM     17  C   UNL     1      -4.833  -0.837  -0.978  0.00  0.00    +0.054 C 
ATOM     18  C   UNL     1      -5.381   0.320  -1.684  0.00  0.00    +0.179 C 
ATOM     19  O   UNL     1      -6.436   0.205  -2.363  0.00  0.00    -0.288 OA
ATOM     20  C   UNL     1      -4.692   1.603  -1.610  0.00  0.00    +0.047 C 
ATOM     21  C   UNL     1      -3.591   1.739  -0.872  0.00  0.00    -0.009 C 
ATOM     22  C   UNL     1      -2.999   0.616  -0.017  0.00  0.00    +0.047 C 
ATOM     23  C   UNL     1      -3.228   1.028   1.460  0.00  0.00    +0.023 C 
ENDROOT
BRANCH   5  24
ATOM     24  O   UNL     1       2.906  -0.207  -1.780  0.00  0.00    -0.380 OA
ATOM     25  H   UNL     1       3.780  -0.552  -2.105  0.00  0.00    +0.211 HD
ENDBRANCH   5  24
BRANCH   5  26
ATOM     26  C   UNL     1       4.067   0.527   0.182  0.00  0.00    +0.190 C 
ATOM     27  O   UNL     1       4.574   0.265   1.262  0.00  0.00    -0.292 OA
BRANCH  26  28
ATOM     28  C   UNL     1       4.555   1.761  -0.534  0.00  0.00    +0.233 C 
BRANCH  28  29
ATOM     29  O   UNL     1       4.426   2.869   0.310  0.00  0.00    -0.387 OA
ATOM     30  H   UNL     1       4.791   3.643  -0.192  0.00  0.00    +0.210 HD
ENDBRANCH  28  29
ENDBRANCH  26  28
ENDBRANCH   5  26
BRANCH   9  31
ATOM     31  O   UNL     1      -0.677   2.246   1.030  0.00  0.00    -0.389 OA
ATOM     32  H   UNL     1      -0.346   3.180   0.971  0.00  0.00    +0.210 HD
ENDBRANCH   9  31
TORSDOF 5
