REMARK  Name = 
REMARK  13 active torsions:
REMARK  status: ('A' for Active; 'I' for Inactive)
REMARK    1  A    between atoms: C_4  and  O_5
REMARK    2  A    between atoms: C_4  and  C_11
REMARK    3  A    between atoms: O_5  and  C_6
REMARK    4  A    between atoms: C_6  and  C_8
REMARK    5  A    between atoms: C_8  and  C_9
REMARK    6  A    between atoms: C_9  and  C_10
REMARK    7  A    between atoms: C_11  and  C_13
REMARK    8  A    between atoms: C_13  and  O_14
REMARK    9  A    between atoms: O_14  and  C_15
REMARK   10  A    between atoms: C_15  and  C_16
REMARK   11  A    between atoms: C_18  and  C_19
REMARK   12  A    between atoms: C_21  and  O_22
REMARK   13  A    between atoms: C_35  and  C_36
REMARK                            x       y       z     vdW  Elec       q    Type
REMARK                         _______ _______ _______ _____ _____    ______ ____
ROOT
ATOM      1  C   UNL     1      -0.228  -0.692  -0.733  0.00  0.00    +0.006 C 
ATOM      2  C   UNL     1       0.637  -1.800  -1.318  0.00  0.00    +0.009 C 
ATOM      3  C   UNL     1       2.083  -1.350  -1.036  0.00  0.00    +0.057 C 
ATOM      4  C   UNL     1       1.996  -0.050  -0.172  0.00  0.00    +0.180 C 
ATOM      5  C   UNL     1       0.573  -0.168   0.466  0.00  0.00    +0.021 C 
ATOM      6  C   UNL     1       0.619  -1.179   1.665  0.00  0.00    +0.016 C 
ATOM      7  C   UNL     1      -0.074   1.171   0.917  0.00  0.00    +0.045 C 
ATOM      8  C   UNL     1      -1.592   1.030   1.235  0.00  0.00    +0.154 C 
ATOM      9  C   UNL     1      -2.402   0.345   0.070  0.00  0.00    +0.153 C 
ATOM     10  F   UNL     1      -2.338   1.237  -0.996  0.00  0.00    -0.238 F 
ATOM     11  C   UNL     1      -1.710  -0.989  -0.403  0.00  0.00    +0.037 C 
ATOM     12  C   UNL     1      -2.428  -1.569  -1.640  0.00  0.00    +0.048 C 
ATOM     13  C   UNL     1      -3.906  -1.830  -1.359  0.00  0.00    +0.194 C 
ATOM     14  F   UNL     1      -4.500  -2.318  -2.514  0.00  0.00    -0.241 F 
ATOM     15  C   UNL     1      -4.567  -0.562  -0.863  0.00  0.00    -0.020 C 
ATOM     16  C   UNL     1      -5.710  -0.128  -1.429  0.00  0.00    +0.054 C 
ATOM     17  C   UNL     1      -6.352   1.106  -0.978  0.00  0.00    +0.179 C 
ATOM     18  O   UNL     1      -7.437   1.481  -1.496  0.00  0.00    -0.288 OA
ATOM     19  C   UNL     1      -5.718   1.909   0.062  0.00  0.00    +0.047 C 
ATOM     20  C   UNL     1      -4.598   1.492   0.651  0.00  0.00    -0.009 C 
ATOM     21  C   UNL     1      -3.947   0.135   0.365  0.00  0.00    +0.047 C 
ATOM     22  C   UNL     1      -4.242  -0.759   1.596  0.00  0.00    +0.023 C 
ENDROOT
BRANCH   4  23
ATOM     23  C   UNL     1       3.102   0.123   0.875  0.00  0.00    +0.214 C 
ATOM     24  O   UNL     1       3.053   1.090   1.622  0.00  0.00    -0.289 OA
BRANCH  23  25
ATOM     25  C   UNL     1       4.255  -0.832   1.031  0.00  0.00    +0.310 C 
BRANCH  25  26
ATOM     26  O   UNL     1       3.832  -1.965   1.782  0.00  0.00    -0.457 OA
BRANCH  26  27
ATOM     27  C   UNL     1       4.670  -3.051   2.045  0.00  0.00    +0.304 C 
ATOM     28  C   UNL     1       4.156  -4.189   2.859  0.00  0.00    +0.136 C 
ATOM     29  O   UNL     1       5.861  -3.062   1.632  0.00  0.00    -0.251 OA
ENDBRANCH  26  27
ENDBRANCH  25  26
ENDBRANCH  23  25
ENDBRANCH   4  23
BRANCH   8  30
ATOM     30  O   UNL     1      -1.768   0.355   2.452  0.00  0.00    -0.389 OA
ATOM     31  H   UNL     1      -1.468   0.966   3.174  0.00  0.00    +0.210 HD
ENDBRANCH   8  30
BRANCH   4  32
ATOM     32  O   UNL     1       2.017   1.095  -1.042  0.00  0.00    -0.450 OA
BRANCH  32  33
ATOM     33  C   UNL     1       3.114   1.518  -1.807  0.00  0.00    +0.308 C 
ATOM     34  O   UNL     1       4.199   0.877  -1.799  0.00  0.00    -0.251 OA
BRANCH  33  35
ATOM     35  C   UNL     1       3.001   2.777  -2.606  0.00  0.00    +0.120 C 
BRANCH  35  36
ATOM     36  C   UNL     1       3.722   3.946  -1.923  0.00  0.00    +0.008 C 
ATOM     37  C   UNL     1       3.054   4.354  -0.609  0.00  0.00    +0.004 C 
ENDBRANCH  35  36
ENDBRANCH  33  35
ENDBRANCH  32  33
ENDBRANCH   4  32
TORSDOF 9
