REMARK  Name = 
REMARK  4 active torsions:
REMARK  status: ('A' for Active; 'I' for Inactive)
REMARK    1  A    between atoms: O_1  and  C_2
REMARK    2  A    between atoms: C_2  and  C_4
REMARK    3  A    between atoms: C_5  and  O_6
REMARK    4  A    between atoms: C_9  and  C_11
REMARK                            x       y       z     vdW  Elec       q    Type
REMARK                         _______ _______ _______ _____ _____    ______ ____
ROOT
ATOM      1  C   UNL     1      -2.344   0.012   0.050  0.00  0.00    +0.101 A 
ATOM      2  C   UNL     1      -2.587   1.384   0.310  0.00  0.00    +0.131 A 
ATOM      3  C   UNL     1      -1.510   2.273   0.396  0.00  0.00    +0.047 A 
ATOM      4  C   UNL     1      -0.198   1.818   0.268  0.00  0.00    +0.012 A 
ATOM      5  C   UNL     1       0.063   0.459   0.045  0.00  0.00    -0.014 A 
ATOM      6  C   UNL     1      -1.015  -0.437  -0.056  0.00  0.00    +0.027 A 
ENDROOT
BRANCH   5   7
ATOM      7  C   UNL     1       1.460  -0.024  -0.076  0.00  0.00    +0.018 A 
ATOM      8  C   UNL     1       1.845  -0.881  -1.127  0.00  0.00    +0.134 A 
ATOM      9  F   UNL     1       0.956  -1.256  -2.081  0.00  0.00    -0.205 F 
ATOM     10  C   UNL     1       3.167  -1.329  -1.221  0.00  0.00    +0.077 A 
ATOM     11  C   UNL     1       4.115  -0.928  -0.276  0.00  0.00    +0.126 A 
ATOM     12  F   UNL     1       5.395  -1.365  -0.371  0.00  0.00    -0.205 F 
ATOM     13  C   UNL     1       3.744  -0.074   0.765  0.00  0.00    +0.039 A 
ATOM     14  C   UNL     1       2.426   0.379   0.865  0.00  0.00    +0.014 A 
ENDBRANCH   5   7
BRANCH   1  15
ATOM     15  C   UNL     1      -3.433  -0.971  -0.143  0.00  0.00    +0.340 C 
ATOM     16  O   UNL     1      -4.513  -0.636  -0.699  0.00  0.00    -0.245 OA
BRANCH  15  17
ATOM     17  O   UNL     1      -3.244  -2.297   0.236  0.00  0.00    -0.477 OA
ATOM     18  H   UNL     1      -3.971  -2.988   0.092  0.00  0.00    +0.295 HD
ENDBRANCH  15  17
ENDBRANCH   1  15
BRANCH   2  19
ATOM     19  O   UNL     1      -3.869   1.896   0.524  0.00  0.00    -0.506 OA
ATOM     20  H   UNL     1      -4.688   1.317   0.651  0.00  0.00    +0.292 HD
ENDBRANCH   2  19
TORSDOF 4
