REMARK  Name = 
REMARK  17 active torsions:
REMARK  status: ('A' for Active; 'I' for Inactive)
REMARK    1  A    between atoms: C_8  and  C_9
REMARK    2  A    between atoms: C_10  and  C_15
REMARK    3  A    between atoms: C_13  and  O_14
REMARK    4  A    between atoms: C_21  and  C_22
REMARK    5  A    between atoms: C_25  and  O_27
REMARK    6  A    between atoms: O_27  and  C_28
REMARK    7  A    between atoms: C_30  and  O_31
REMARK    8  A    between atoms: C_32  and  O_33
REMARK    9  A    between atoms: O_33  and  C_34
REMARK   10  A    between atoms: C_36  and  O_37
REMARK   11  A    between atoms: C_38  and  O_39
REMARK   12  A    between atoms: O_39  and  C_40
REMARK   13  A    between atoms: C_42  and  O_43
REMARK   14  A    between atoms: C_44  and  O_45
REMARK   15  A    between atoms: C_46  and  C_47
REMARK   16  A    between atoms: C_49  and  C_50
REMARK   17  A    between atoms: C_52  and  C_53
REMARK                            x       y       z     vdW  Elec       q    Type
REMARK                         _______ _______ _______ _____ _____    ______ ____
ROOT
ATOM      1  C   UNL     1      -0.065  -0.614   0.689  0.00  0.00    +0.253 C 
ATOM      2  C   UNL     1       0.529  -1.100  -0.657  0.00  0.00    +0.095 C 
ATOM      3  C   UNL     1       2.005  -1.451  -0.479  0.00  0.00    +0.151 C 
ATOM      4  C   UNL     1       2.775  -0.188  -0.041  0.00  0.00    +0.178 C 
ATOM      5  C   UNL     1       1.924   0.702   0.920  0.00  0.00    +0.150 C 
ATOM      6  C   UNL     1       1.405   1.997   0.256  0.00  0.00    +0.041 C 
ATOM      7  O   UNL     1       0.887  -0.023   1.567  0.00  0.00    -0.346 OA
ENDROOT
BRANCH   3   8
ATOM      8  O   UNL     1       2.143  -2.460   0.487  0.00  0.00    -0.389 OA
ATOM      9  H   UNL     1       1.739  -3.285   0.110  0.00  0.00    +0.210 HD
ENDBRANCH   3   8
BRANCH   1  10
ATOM     10  O   UNL     1      -1.124   0.312   0.462  0.00  0.00    -0.348 OA
BRANCH  10  28
ATOM     11  C   UNL     1      -3.536   0.455  -1.439  0.00  0.00    -0.002 C 
ATOM     12  C   UNL     1      -4.258  -0.087  -2.692  0.00  0.00    +0.004 C 
ATOM     13  C   UNL     1      -5.641  -0.656  -2.367  0.00  0.00    +0.007 C 
ATOM     14  C   UNL     1      -6.550   0.337  -1.597  0.00  0.00    +0.025 C 
ATOM     15  C   UNL     1      -5.825   0.951  -0.359  0.00  0.00    +0.001 C 
ATOM     16  C   UNL     1      -6.716   1.963   0.415  0.00  0.00    +0.005 C 
ATOM     17  C   UNL     1      -8.225   1.857   0.134  0.00  0.00    +0.010 C 
ATOM     18  C   UNL     1      -8.743   0.418  -0.099  0.00  0.00    +0.004 C 
ATOM     19  C   UNL     1     -10.275   0.536  -0.381  0.00  0.00    +0.014 C 
ATOM     20  C   UNL     1      -8.456  -0.508   1.150  0.00  0.00    +0.027 C 
ATOM     21  C   UNL     1      -7.822  -1.801   0.613  0.00  0.00    +0.011 C 
ATOM     22  C   UNL     1      -8.026  -1.753  -0.888  0.00  0.00    +0.036 C 
ATOM     23  C   UNL     1      -7.999  -0.266  -1.306  0.00  0.00    +0.075 C 
ATOM     24  C   UNL     1      -4.396   1.542  -0.716  0.00  0.00    -0.026 C 
ATOM     25  C   UNL     1      -4.492   2.791  -1.645  0.00  0.00    +0.012 C 
ATOM     26  C   UNL     1      -3.623   2.007   0.555  0.00  0.00    +0.010 C 
ATOM     27  C   UNL     1      -3.233   0.861   1.489  0.00  0.00    +0.032 C 
ATOM     28  C   UNL     1      -2.403  -0.211   0.776  0.00  0.00    +0.122 C 
ATOM     29  C   UNL     1      -3.109  -0.704  -0.498  0.00  0.00    +0.035 C 
BRANCH  20  30
ATOM     30  C   UNL     1      -9.635  -0.767   2.073  0.00  0.00    -0.022 C 
ATOM     31  C   UNL     1     -10.571  -1.693   1.891  0.00  0.00    +0.094 C 
ATOM     32  C   UNL     1     -11.466  -1.593   3.019  0.00  0.00    +0.332 C 
ATOM     33  O   UNL     1     -12.418  -2.376   3.262  0.00  0.00    -0.246 OA
ATOM     34  O   UNL     1     -11.078  -0.564   3.859  0.00  0.00    -0.457 OA
ATOM     35  C   UNL     1      -9.891   0.019   3.336  0.00  0.00    +0.264 C 
ENDBRANCH  20  30
BRANCH  23  36
ATOM     36  O   UNL     1      -8.747  -0.177  -2.505  0.00  0.00    -0.388 OA
ATOM     37  H   UNL     1      -8.832   0.787  -2.747  0.00  0.00    +0.210 HD
ENDBRANCH  23  36
ENDBRANCH  10  28
ENDBRANCH   1  10
BRANCH   4  38
ATOM     38  O   UNL     1       3.962  -0.584   0.634  0.00  0.00    -0.343 OA
BRANCH  38  39
ATOM     39  C   UNL     1       5.136  -0.265  -0.092  0.00  0.00    +0.254 C 
ATOM     40  C   UNL     1       5.554   1.200   0.200  0.00  0.00    +0.095 C 
ATOM     41  C   UNL     1       7.057   1.445  -0.014  0.00  0.00    +0.151 C 
ATOM     42  C   UNL     1       7.959   0.318   0.572  0.00  0.00    +0.178 C 
ATOM     43  C   UNL     1       7.120  -0.860   1.130  0.00  0.00    +0.150 C 
ATOM     44  C   UNL     1       6.579  -0.635   2.557  0.00  0.00    +0.041 C 
ATOM     45  O   UNL     1       6.116  -1.255   0.208  0.00  0.00    -0.346 OA
BRANCH  41  46
ATOM     46  O   UNL     1       7.335   1.698  -1.370  0.00  0.00    -0.389 OA
ATOM     47  H   UNL     1       7.013   0.918  -1.901  0.00  0.00    +0.210 HD
ENDBRANCH  41  46
BRANCH  42  48
ATOM     48  O   UNL     1       8.805  -0.183  -0.455  0.00  0.00    -0.343 OA
BRANCH  48  49
ATOM     49  C   UNL     1      10.095  -0.538   0.020  0.00  0.00    +0.254 C 
ATOM     50  C   UNL     1      10.453  -1.901  -0.587  0.00  0.00    +0.095 C 
ATOM     51  C   UNL     1      11.898  -2.303  -0.272  0.00  0.00    +0.150 C 
ATOM     52  C   UNL     1      12.870  -1.132  -0.541  0.00  0.00    +0.172 C 
ATOM     53  C   UNL     1      12.320   0.187   0.061  0.00  0.00    +0.149 C 
ATOM     54  C   UNL     1      13.207   1.371  -0.329  0.00  0.00    +0.041 C 
ATOM     55  O   UNL     1      11.014   0.447  -0.426  0.00  0.00    -0.346 OA
BRANCH  51  56
ATOM     56  O   UNL     1      12.024  -2.803   1.042  0.00  0.00    -0.389 OA
ATOM     57  H   UNL     1      11.836  -2.069   1.676  0.00  0.00    +0.210 HD
ENDBRANCH  51  56
BRANCH  52  58
ATOM     58  O   UNL     1      14.130  -1.435   0.008  0.00  0.00    -0.387 OA
ATOM     59  H   UNL     1      14.813  -1.060  -0.610  0.00  0.00    +0.210 HD
ENDBRANCH  52  58
ENDBRANCH  48  49
ENDBRANCH  42  48
ENDBRANCH  38  39
ENDBRANCH   4  38
TORSDOF 12
