REMARK  Name = 
REMARK  7 active torsions:
REMARK  status: ('A' for Active; 'I' for Inactive)
REMARK    1  A    between atoms: C_8  and  C_9
REMARK    2  A    between atoms: C_9  and  C_10
REMARK    3  A    between atoms: C_19  and  C_20
REMARK    4  A    between atoms: C_19  and  N_21
REMARK    5  A    between atoms: C_22  and  C_24
REMARK    6  A    between atoms: N_26  and  C_27
REMARK    7  A    between atoms: C_42  and  O_43
REMARK                            x       y       z     vdW  Elec       q    Type
REMARK                         _______ _______ _______ _____ _____    ______ ____
ROOT
ATOM      1  C   UNL     1      -4.135  -2.548  -0.160  0.00  0.00    +0.156 C 
ATOM      2  C   UNL     1      -4.245  -3.051  -1.603  0.00  0.00    +0.031 C 
ATOM      3  C   UNL     1      -5.667  -2.704  -2.049  0.00  0.00    +0.021 C 
ATOM      4  C   UNL     1      -6.149  -1.598  -1.113  0.00  0.00    +0.108 C 
ATOM      5  N   UNL     1      -5.234  -1.619   0.011  0.00  0.00    -0.290 N 
ATOM      6  C   UNL     1      -5.297  -0.707   1.117  0.00  0.00    +0.237 C 
ATOM      7  O   UNL     1      -6.356  -0.059   1.337  0.00  0.00    -0.274 OA
ATOM      8  C   UNL     1      -4.115  -0.572   2.054  0.00  0.00    +0.171 C 
ATOM      9  N   UNL     1      -2.917  -1.221   1.494  0.00  0.00    -0.233 N 
ATOM     10  C   UNL     1      -1.820  -1.675   2.231  0.00  0.00    +0.271 C 
ATOM     11  O   UNL     1      -1.586  -1.345   3.425  0.00  0.00    -0.270 OA
ATOM     12  C   UNL     1      -0.984  -2.565   1.403  0.00  0.00    +0.215 C 
ATOM     13  C   UNL     1      -0.687  -3.876   2.137  0.00  0.00    +0.074 C 
ATOM     14  O   UNL     1      -1.762  -2.823   0.242  0.00  0.00    -0.299 OA
ATOM     15  C   UNL     1      -2.802  -1.851   0.180  0.00  0.00    +0.269 C 
ENDROOT
BRANCH  12  16
ATOM     16  N   UNL     1       0.258  -1.881   1.025  0.00  0.00    -0.280 N 
ATOM     17  C   UNL     1       1.034  -2.267  -0.123  0.00  0.00    +0.220 C 
ATOM     18  O   UNL     1       0.932  -3.433  -0.591  0.00  0.00    -0.275 OA
ATOM     19  H   UNL     1       0.510  -0.994   1.516  0.00  0.00    +0.152 HD
BRANCH  17  20
ATOM     20  C   UNL     1       1.931  -1.274  -0.817  0.00  0.00    +0.090 C 
ATOM     21  C   UNL     1       1.102  -0.074  -1.324  0.00  0.00    +0.097 C 
ATOM     22  N   UNL     1       1.933   0.946  -1.998  0.00  0.00    -0.301 NA
ATOM     23  C   UNL     1       2.373   0.507  -3.338  0.00  0.00    +0.105 C 
ATOM     24  C   UNL     1       3.021   1.419  -1.106  0.00  0.00    +0.068 C 
ATOM     25  C   UNL     1       3.826   2.607  -1.715  0.00  0.00    +0.056 C 
ATOM     26  C   UNL     1       4.904   2.996  -0.751  0.00  0.00    -0.021 A 
ATOM     27  C   UNL     1       5.684   4.143  -0.640  0.00  0.00    +0.087 A 
ATOM     28  N   UNL     1       6.642   3.957   0.307  0.00  0.00    -0.360 N 
ATOM     29  C   UNL     1       6.474   2.699   0.764  0.00  0.00    +0.047 A 
ATOM     30  C   UNL     1       7.244   1.990   1.683  0.00  0.00    +0.026 A 
ATOM     31  C   UNL     1       6.904   0.637   1.914  0.00  0.00    +0.002 A 
ATOM     32  C   UNL     1       5.821   0.033   1.222  0.00  0.00    +0.004 A 
ATOM     33  C   UNL     1       5.043   0.793   0.316  0.00  0.00    -0.033 A 
ATOM     34  C   UNL     1       5.431   2.108   0.129  0.00  0.00    +0.006 A 
ATOM     35  C   UNL     1       3.943   0.247  -0.593  0.00  0.00    +0.038 C 
ATOM     36  C   UNL     1       3.073  -0.812   0.107  0.00  0.00    +0.023 C 
ATOM     37  H   UNL     1       7.383   4.636   0.590  0.00  0.00    +0.165 HD
ENDBRANCH  17  20
ENDBRANCH  12  16
BRANCH  15  38
ATOM     38  O   UNL     1      -2.453  -0.884  -0.782  0.00  0.00    -0.348 OA
ATOM     39  H   UNL     1      -3.188  -0.220  -0.830  0.00  0.00    +0.214 HD
ENDBRANCH  15  38
BRANCH   8  40
ATOM     40  C   UNL     1      -3.819   0.899   2.420  0.00  0.00    +0.067 C 
BRANCH  40  41
ATOM     41  C   UNL     1      -3.265   1.699   1.265  0.00  0.00    -0.045 A 
ATOM     42  C   UNL     1      -4.131   2.322   0.350  0.00  0.00    +0.004 A 
ATOM     43  C   UNL     1      -3.615   3.047  -0.728  0.00  0.00    +0.000 A 
ATOM     44  C   UNL     1      -2.233   3.163  -0.898  0.00  0.00    +0.000 A 
ATOM     45  C   UNL     1      -1.364   2.552   0.010  0.00  0.00    +0.000 A 
ATOM     46  C   UNL     1      -1.875   1.815   1.083  0.00  0.00    +0.004 A 
ENDBRANCH  40  41
ENDBRANCH   8  40
TORSDOF 5
