REMARK  Name = 
REMARK  3 active torsions:
REMARK  status: ('A' for Active; 'I' for Inactive)
REMARK    1  A    between atoms: N_3  and  C_4
REMARK    2  A    between atoms: C_4  and  C_5
REMARK    3  A    between atoms: C_5  and  O_7
REMARK                            x       y       z     vdW  Elec       q    Type
REMARK                         _______ _______ _______ _____ _____    ______ ____
ROOT
ATOM      1  O   HOH     1      -0.029   0.403   0.000  0.00  0.00    -0.410 OA
ATOM      2  H   HOH     0      -0.767  -0.257   0.000  0.00  0.00    +0.205 HD
ATOM      3  H   HOH     0       0.795  -0.146   0.000  0.00  0.00    +0.205 HD
ENDROOT
TORSDOF 0
REMARK  Name = 
REMARK  3 active torsions:
REMARK  status: ('A' for Active; 'I' for Inactive)
REMARK    1  A    between atoms: N_3  and  C_4
REMARK    2  A    between atoms: C_4  and  C_5
REMARK    3  A    between atoms: C_5  and  O_7
REMARK                            x       y       z     vdW  Elec       q    Type
REMARK                         _______ _______ _______ _____ _____    ______ ____
ROOT
ATOM      1  O   HOH     1      -0.021   0.404   0.000  0.00  0.00    -0.410 OA
ATOM      2  H   HOH     0      -0.771  -0.243   0.000  0.00  0.00    +0.205 HD
ATOM      3  H   HOH     0       0.793  -0.160   0.000  0.00  0.00    +0.205 HD
ENDROOT
TORSDOF 0
REMARK  Name = 
REMARK  3 active torsions:
REMARK  status: ('A' for Active; 'I' for Inactive)
REMARK    1  A    between atoms: N_3  and  C_4
REMARK    2  A    between atoms: C_4  and  C_5
REMARK    3  A    between atoms: C_5  and  O_7
REMARK                            x       y       z     vdW  Elec       q    Type
REMARK                         _______ _______ _______ _____ _____    ______ ____
ROOT
ATOM      1  C   UNL     1      -0.625  -0.490   0.067  0.00  0.00    +0.196 C 
ENDROOT
BRANCH   1   2
ATOM      2  N   UNL     1      -1.342   0.627  -0.536  0.00  0.00    -0.321 NA
ATOM      3  H   UNL     1      -1.134   1.488   0.021  0.00  0.00    +0.119 HD
ATOM      4  H   UNL     1      -2.366   0.443  -0.426  0.00  0.00    +0.119 HD
ENDBRANCH   1   2
BRANCH   1   5
ATOM      5  C   UNL     1       0.845  -0.327  -0.149  0.00  0.00    +0.284 C 
ATOM      6  O   UNL     1       1.371  -0.759  -1.211  0.00  0.00    -0.253 OA
BRANCH   5   7
ATOM      7  O   UNL     1       1.608   0.345   0.808  0.00  0.00    -0.635 OA
ATOM      8 AL   UNL     1       3.446   0.653   0.666  0.00  0.00    +0.492 Al
ENDBRANCH   5   7
ENDBRANCH   1   5
TORSDOF 3
