REMARK  Name = 
REMARK  4 active torsions:
REMARK  status: ('A' for Active; 'I' for Inactive)
REMARK    1  A    between atoms: C_4  and  O_5
REMARK    2  A    between atoms: O_5  and  C_6
REMARK    3  A    between atoms: N_14  and  C_15
REMARK    4  A    between atoms: C_21  and  O_22
REMARK                            x       y       z     vdW  Elec       q    Type
REMARK                         _______ _______ _______ _____ _____    ______ ____
ROOT
ATOM      1  C   UNL     1       0.426   1.849   0.801  0.00  0.00    +0.213 C 
ATOM      2  O   UNL     1       1.788   1.414   0.673  0.00  0.00    -0.481 OA
ATOM      3  C   UNL     1       1.838   0.118   0.202  0.00  0.00    +0.167 A 
ATOM      4  C   UNL     1       2.965  -0.577  -0.236  0.00  0.00    +0.162 A 
ATOM      5  C   UNL     1       2.758  -1.820  -0.884  0.00  0.00    +0.050 A 
ATOM      6  C   UNL     1       1.447  -2.280  -1.137  0.00  0.00    +0.008 A 
ATOM      7  C   UNL     1       0.338  -1.544  -0.678  0.00  0.00    -0.038 A 
ATOM      8  C   UNL     1       0.587  -0.405   0.086  0.00  0.00    +0.011 A 
ATOM      9  C   UNL     1      -0.439   0.552   0.590  0.00  0.00    +0.044 C 
ATOM     10  C   UNL     1      -1.031   0.023   1.939  0.00  0.00    +0.031 C 
ATOM     11  C   UNL     1      -2.474  -0.500   1.810  0.00  0.00    +0.085 C 
ATOM     12  N   UNL     1      -2.645  -1.362   0.622  0.00  0.00    -0.302 NA
ATOM     13  C   UNL     1      -4.047  -1.791   0.499  0.00  0.00    +0.105 C 
ATOM     14  C   UNL     1      -2.124  -0.801  -0.660  0.00  0.00    +0.065 C 
ATOM     15  C   UNL     1      -1.058  -1.808  -1.197  0.00  0.00    +0.054 C 
ATOM     16  C   UNL     1      -1.542   0.646  -0.488  0.00  0.00    +0.021 C 
ATOM     17  C   UNL     1      -1.064   1.281  -1.826  0.00  0.00    +0.009 C 
ATOM     18  C   UNL     1       0.020   2.369  -1.665  0.00  0.00    +0.035 C 
ATOM     19  C   UNL     1       0.094   2.944  -0.238  0.00  0.00    +0.156 C 
ENDROOT
BRANCH   4  20
ATOM     20  O   UNL     1       4.235  -0.013  -0.049  0.00  0.00    -0.491 OA
ATOM     21  C   UNL     1       5.449  -0.625  -0.469  0.00  0.00    +0.277 C 
ENDBRANCH   4  20
BRANCH  19  22
ATOM     22  O   UNL     1       1.018   4.001  -0.166  0.00  0.00    -0.388 OA
ATOM     23  H   UNL     1       1.895   3.663  -0.488  0.00  0.00    +0.210 HD
ENDBRANCH  19  22
TORSDOF 2
