REMARK  Name = 
REMARK  12 active torsions:
REMARK  status: ('A' for Active; 'I' for Inactive)
REMARK    1  A    between atoms: C_1  and  C_2
REMARK    2  A    between atoms: C_2  and  C_3
REMARK    3  A    between atoms: C_2  and  C_4
REMARK    4  A    between atoms: C_4  and  C_5
REMARK    5  A    between atoms: C_4  and  C_6
REMARK    6  A    between atoms: C_7  and  C_8
REMARK    7  A    between atoms: C_8  and  C_9
REMARK    8  A    between atoms: C_8  and  C_10
REMARK    9  A    between atoms: C_18  and  C_19
REMARK   10  A    between atoms: C_20  and  C_21
REMARK   11  A    between atoms: C_24  and  O_25
REMARK   12  A    between atoms: C_28  and  C_29
REMARK                            x       y       z     vdW  Elec       q    Type
REMARK                         _______ _______ _______ _____ _____    ______ ____
ROOT
ATOM      1  C   UNL     1       1.944  -0.750   0.800  0.00  0.00    +0.002 C 
ATOM      2  C   UNL     1       1.735   0.610   0.085  0.00  0.00    +0.005 C 
ATOM      3  C   UNL     1       0.269   1.009   0.290  0.00  0.00    +0.009 C 
ATOM      4  C   UNL     1      -0.261  -0.003   1.301  0.00  0.00    +0.021 C 
ATOM      5  C   UNL     1      -1.752  -0.259   1.414  0.00  0.00    -0.066 C 
ATOM      6  C   UNL     1      -2.147  -1.480   2.232  0.00  0.00    +0.031 C 
ATOM      7  C   UNL     1      -0.959  -2.076   3.021  0.00  0.00    +0.005 C 
ATOM      8  C   UNL     1       0.329  -2.298   2.186  0.00  0.00    +0.008 C 
ATOM      9  C   UNL     1       0.500  -1.305   0.991  0.00  0.00    -0.022 C 
ATOM     10  C   UNL     1      -0.019  -1.974  -0.322  0.00  0.00    +0.012 C 
ATOM     11  C   UNL     1      -2.662   0.578   0.872  0.00  0.00    -0.001 C 
ENDROOT
BRANCH  11  12
ATOM     12  C   UNL     1      -4.130   0.372   0.963  0.00  0.00    -0.000 C 
ATOM     13  C   UNL     1      -5.051   1.094   0.286  0.00  0.00    -0.064 C 
ATOM     14  C   UNL     1      -4.696   2.031  -0.854  0.00  0.00    +0.062 C 
ATOM     15  C   UNL     1      -5.584   1.743  -2.078  0.00  0.00    +0.119 C 
ATOM     16  C   UNL     1      -7.099   1.682  -1.740  0.00  0.00    +0.032 C 
ATOM     17  C   UNL     1      -7.410   1.844  -0.247  0.00  0.00    +0.010 C 
ATOM     18  C   UNL     1      -6.527   0.931   0.630  0.00  0.00    +0.012 C 
ATOM     19  C   UNL     1      -6.795   1.248   2.111  0.00  0.00    +0.012 C 
BRANCH  15  20
ATOM     20  O   UNL     1      -5.176   0.528  -2.656  0.00  0.00    -0.391 OA
ATOM     21  H   UNL     1      -5.476   0.545  -3.603  0.00  0.00    +0.210 HD
ENDBRANCH  15  20
ENDBRANCH  11  12
BRANCH   1  22
ATOM     22  C   UNL     1       2.981  -1.651   0.059  0.00  0.00    +0.012 C 
ATOM     23  C   UNL     1       3.241  -2.973   0.796  0.00  0.00    +0.012 C 
BRANCH  22  25
ATOM     24  C   UNL     1       5.103  -1.115  -1.137  0.00  0.00    -0.027 C 
ATOM     25  C   UNL     1       4.301  -0.923  -0.074  0.00  0.00    -0.027 C 
BRANCH  24  26
ATOM     26  C   UNL     1       6.464  -0.461  -1.290  0.00  0.00    +0.011 C 
ATOM     27  C   UNL     1       7.355  -0.675  -0.055  0.00  0.00    +0.012 C 
BRANCH  26  29
ATOM     28  C   UNL     1       5.739   1.160  -3.122  0.00  0.00    +0.008 C 
ATOM     29  C   UNL     1       6.399   1.028  -1.741  0.00  0.00    -0.011 C 
ATOM     30  C   UNL     1       5.705   1.964  -0.737  0.00  0.00    +0.008 C 
ENDBRANCH  26  29
ENDBRANCH  24  26
ENDBRANCH  22  25
ENDBRANCH   1  22
TORSDOF 6
