REMARK  Name = 
REMARK  9 active torsions:
REMARK  status: ('A' for Active; 'I' for Inactive)
REMARK    1  A    between atoms: C_1  and  S_2
REMARK    2  A    between atoms: S_2  and  O_3
REMARK    3  A    between atoms: C_13  and  C_14
REMARK    4  A    between atoms: C_14  and  C_15
REMARK    5  A    between atoms: C_24  and  C_25
REMARK    6  A    between atoms: C_24  and  N_26
REMARK    7  A    between atoms: C_27  and  C_29
REMARK    8  A    between atoms: N_37  and  C_38
REMARK    9  A    between atoms: C_47  and  O_48
REMARK                            x       y       z     vdW  Elec       q    Type
REMARK                         _______ _______ _______ _____ _____    ______ ____
ROOT
ATOM      1  C   UNL     1       1.081   0.124  -0.074  0.00  0.00    +0.228 C 
ATOM      2  S   UNL     1      -0.587  -0.487   0.019  0.00  0.00    +0.077 S 
ATOM      3  O   UNL     1      -0.748  -1.635  -0.935  0.00  0.00    -0.148 OA
ATOM      4  O   UNL     1      -0.879  -0.959   1.416  0.00  0.00    -0.148 OA
ENDROOT
BRANCH   2   5
ATOM      5  O   UNL     1      -1.661   0.737  -0.401  0.00  0.00    -0.254 OA
ATOM      6  H   UNL     1      -1.492   1.462   0.258  0.00  0.00    +0.244 HD
ENDBRANCH   2   5
TORSDOF 1
REMARK  Name = 
REMARK  9 active torsions:
REMARK  status: ('A' for Active; 'I' for Inactive)
REMARK    1  A    between atoms: C_1  and  S_2
REMARK    2  A    between atoms: S_2  and  O_3
REMARK    3  A    between atoms: C_13  and  C_14
REMARK    4  A    between atoms: C_14  and  C_15
REMARK    5  A    between atoms: C_24  and  C_25
REMARK    6  A    between atoms: C_24  and  N_26
REMARK    7  A    between atoms: C_27  and  C_29
REMARK    8  A    between atoms: N_37  and  C_38
REMARK    9  A    between atoms: C_47  and  O_48
REMARK                            x       y       z     vdW  Elec       q    Type
REMARK                         _______ _______ _______ _____ _____    ______ ____
ROOT
ATOM      1  C   UNL     1      -4.714  -2.534   0.817  0.00  0.00    +0.156 C 
ATOM      2  C   UNL     1      -5.041  -3.731  -0.078  0.00  0.00    +0.031 C 
ATOM      3  C   UNL     1      -6.564  -3.713  -0.212  0.00  0.00    +0.021 C 
ATOM      4  C   UNL     1      -6.987  -2.267   0.025  0.00  0.00    +0.108 C 
ATOM      5  N   UNL     1      -5.869  -1.657   0.724  0.00  0.00    -0.290 N 
ATOM      6  C   UNL     1      -5.818  -0.276   1.112  0.00  0.00    +0.237 C 
ATOM      7  O   UNL     1      -6.871   0.417   1.111  0.00  0.00    -0.274 OA
ATOM      8  C   UNL     1      -4.511   0.321   1.590  0.00  0.00    +0.171 C 
ATOM      9  N   UNL     1      -3.378  -0.553   1.236  0.00  0.00    -0.233 N 
ATOM     10  C   UNL     1      -2.151  -0.601   1.899  0.00  0.00    +0.271 C 
ATOM     11  O   UNL     1      -1.793   0.241   2.764  0.00  0.00    -0.270 OA
ATOM     12  C   UNL     1      -1.393  -1.800   1.484  0.00  0.00    +0.215 C 
ATOM     13  C   UNL     1      -0.993  -2.658   2.690  0.00  0.00    +0.074 C 
ATOM     14  O   UNL     1      -2.289  -2.554   0.675  0.00  0.00    -0.299 OA
ATOM     15  C   UNL     1      -3.447  -1.757   0.420  0.00  0.00    +0.269 C 
ENDROOT
BRANCH  12  16
ATOM     16  N   UNL     1      -0.222  -1.432   0.677  0.00  0.00    -0.280 N 
ATOM     17  C   UNL     1       0.874  -0.620   1.134  0.00  0.00    +0.220 C 
ATOM     18  O   UNL     1       0.858  -0.116   2.288  0.00  0.00    -0.275 OA
ATOM     19  H   UNL     1      -0.179  -1.791  -0.305  0.00  0.00    +0.152 HD
BRANCH  17  20
ATOM     20  C   UNL     1       2.031  -0.345   0.204  0.00  0.00    +0.090 C 
ATOM     21  C   UNL     1       3.293   0.101   0.966  0.00  0.00    +0.023 C 
ATOM     22  C   UNL     1       4.440   0.390  -0.018  0.00  0.00    +0.038 C 
ATOM     23  C   UNL     1       5.699   0.901   0.682  0.00  0.00    -0.033 A 
ATOM     24  C   UNL     1       6.521   1.752  -0.034  0.00  0.00    +0.006 A 
ATOM     25  C   UNL     1       6.301   2.234  -1.286  0.00  0.00    -0.021 A 
ATOM     26  C   UNL     1       5.099   1.835  -2.088  0.00  0.00    +0.056 C 
ATOM     27  C   UNL     1       3.957   1.423  -1.105  0.00  0.00    +0.068 C 
ATOM     28  N   UNL     1       2.722   0.987  -1.807  0.00  0.00    -0.301 NA
ATOM     29  C   UNL     1       2.912  -0.124  -2.758  0.00  0.00    +0.105 C 
ATOM     30  C   UNL     1       1.632   0.714  -0.845  0.00  0.00    +0.097 C 
ATOM     31  C   UNL     1       7.446   2.953  -1.617  0.00  0.00    +0.087 A 
ATOM     32  N   UNL     1       8.321   2.928  -0.574  0.00  0.00    -0.360 N 
ATOM     33  C   UNL     1       7.737   2.179   0.386  0.00  0.00    +0.047 A 
ATOM     34  C   UNL     1       8.250   1.774   1.619  0.00  0.00    +0.026 A 
ATOM     35  C   UNL     1       7.460   0.902   2.400  0.00  0.00    +0.002 A 
ATOM     36  C   UNL     1       6.199   0.451   1.930  0.00  0.00    +0.004 A 
ATOM     37  H   UNL     1       9.271   3.356  -0.542  0.00  0.00    +0.165 HD
ENDBRANCH  17  20
ENDBRANCH  12  16
BRANCH  15  38
ATOM     38  O   UNL     1      -3.498  -1.401  -0.941  0.00  0.00    -0.348 OA
ATOM     39  H   UNL     1      -2.605  -1.041  -1.181  0.00  0.00    +0.214 HD
ENDBRANCH  15  38
BRANCH   8  40
ATOM     40  C   UNL     1      -4.278   1.751   1.054  0.00  0.00    +0.067 C 
BRANCH  40  41
ATOM     41  C   UNL     1      -3.904   1.776  -0.408  0.00  0.00    -0.045 A 
ATOM     42  C   UNL     1      -4.900   1.725  -1.399  0.00  0.00    +0.004 A 
ATOM     43  C   UNL     1      -4.547   1.723  -2.753  0.00  0.00    +0.000 A 
ATOM     44  C   UNL     1      -3.203   1.774  -3.127  0.00  0.00    +0.000 A 
ATOM     45  C   UNL     1      -2.205   1.827  -2.148  0.00  0.00    +0.000 A 
ATOM     46  C   UNL     1      -2.550   1.822  -0.793  0.00  0.00    +0.004 A 
ENDBRANCH  40  41
ENDBRANCH   8  40
TORSDOF 5
