REMARK  Name = 
REMARK  6 active torsions:
REMARK  status: ('A' for Active; 'I' for Inactive)
REMARK    1  A    between atoms: C_1  and  N_2
REMARK    2  A    between atoms: N_2  and  C_8
REMARK    3  A    between atoms: C_3  and  C_5
REMARK    4  A    between atoms: C_11  and  O_12
REMARK    5  A    between atoms: O_12  and  C_13
REMARK    6  A    between atoms: C_13  and  C_15
REMARK                            x       y       z     vdW  Elec       q    Type
REMARK                         _______ _______ _______ _____ _____    ______ ____
ROOT
ATOM      1  C   UNL     1      -1.903  -0.089   0.368  0.00  0.00    +0.036 A 
ATOM      2  C   UNL     1      -1.385   1.141  -0.067  0.00  0.00    +0.027 A 
ATOM      3  C   UNL     1      -0.015   1.287  -0.301  0.00  0.00    +0.048 A 
ATOM      4  C   UNL     1       0.857   0.207  -0.119  0.00  0.00    +0.132 A 
ATOM      5  C   UNL     1       0.342  -1.022   0.334  0.00  0.00    +0.048 A 
ATOM      6  C   UNL     1      -1.028  -1.169   0.569  0.00  0.00    +0.027 A 
ENDROOT
BRANCH   1   8
ATOM      7  C   UNL     1      -3.772  -0.687   1.929  0.00  0.00    +0.138 C 
ATOM      8  N   UNL     1      -3.315  -0.239   0.609  0.00  0.00    -0.272 N 
ATOM      9  C   UNL     1      -4.259   0.111  -0.429  0.00  0.00    +0.252 C 
ATOM     10  O   UNL     1      -3.854   0.240  -1.617  0.00  0.00    -0.272 OA
BRANCH   9  11
ATOM     11  C   UNL     1      -5.732   0.252  -0.150  0.00  0.00    +0.257 C 
ATOM     12 CL   UNL     1      -6.556  -1.285  -0.504  0.00  0.00    -0.094 Cl
ATOM     13 CL   UNL     1      -6.449   1.543  -1.152  0.00  0.00    -0.094 Cl
ENDBRANCH   9  11
ENDBRANCH   1   8
BRANCH   4  14
ATOM     14  O   UNL     1       2.225   0.406  -0.358  0.00  0.00    -0.420 OA
BRANCH  14  15
ATOM     15  C   UNL     1       3.129  -0.584  -0.763  0.00  0.00    +0.380 C 
ATOM     16  O   UNL     1       2.724  -1.677  -1.244  0.00  0.00    -0.241 OA
BRANCH  15  17
ATOM     17  C   UNL     1       4.568  -0.312  -0.680  0.00  0.00    +0.212 A 
ATOM     18  C   UNL     1       5.583  -1.169  -1.059  0.00  0.00    +0.056 A 
ATOM     19  C   UNL     1       6.755  -0.492  -0.799  0.00  0.00    +0.042 A 
ATOM     20  C   UNL     1       6.384   0.731  -0.279  0.00  0.00    +0.196 A 
ATOM     21  O   UNL     1       5.074   0.809  -0.220  0.00  0.00    -0.456 OA
ENDBRANCH  15  17
ENDBRANCH  14  15
ENDBRANCH   4  14
TORSDOF 5
