REMARK  Name = 
REMARK  11 active torsions:
REMARK  status: ('A' for Active; 'I' for Inactive)
REMARK    1  A    between atoms: C_1  and  O_2
REMARK    2  A    between atoms: O_2  and  C_3
REMARK    3  A    between atoms: C_6  and  C_9
REMARK    4  A    between atoms: N_17  and  C_18
REMARK    5  A    between atoms: C_18  and  C_19
REMARK    6  A    between atoms: C_19  and  N_20
REMARK    7  A    between atoms: N_20  and  C_21
REMARK    8  A    between atoms: N_20  and  C_22
REMARK    9  A    between atoms: C_25  and  O_26
REMARK   10  A    between atoms: O_26  and  C_27
REMARK   11  A    between atoms: C_27  and  C_28
REMARK                            x       y       z     vdW  Elec       q    Type
REMARK                         _______ _______ _______ _____ _____    ______ ____
ROOT
ATOM      1  C   UNL     1       1.047   0.201  -0.793  0.00  0.00    +0.131 C 
ATOM      2  S   UNL     1       0.550   1.045  -2.342  0.00  0.00    -0.111 S 
ATOM      3  C   UNL     1      -0.882  -0.004  -2.693  0.00  0.00    +0.030 A 
ATOM      4  C   UNL     1      -0.924  -0.545  -3.987  0.00  0.00    +0.016 A 
ATOM      5  C   UNL     1      -2.020  -1.287  -4.418  0.00  0.00    +0.001 A 
ATOM      6  C   UNL     1      -3.095  -1.499  -3.562  0.00  0.00    +0.002 A 
ATOM      7  C   UNL     1      -3.063  -0.999  -2.260  0.00  0.00    +0.024 A 
ATOM      8  C   UNL     1      -1.952  -0.268  -1.779  0.00  0.00    +0.050 A 
ATOM      9  N   UNL     1      -1.899   0.099  -0.369  0.00  0.00    -0.266 N 
ATOM     10  C   UNL     1      -1.073   1.168   0.105  0.00  0.00    +0.262 C 
ATOM     11  O   UNL     1      -1.576   2.309   0.283  0.00  0.00    -0.271 OA
ATOM     12  C   UNL     1       0.384   0.911   0.404  0.00  0.00    +0.279 C 
ENDROOT
BRANCH   1  16
ATOM     13  C   UNL     1       5.353   0.016  -0.267  0.00  0.00    +0.120 A 
ATOM     14  C   UNL     1       4.543  -1.093   0.041  0.00  0.00    +0.046 A 
ATOM     15  C   UNL     1       3.158  -1.026  -0.141  0.00  0.00    +0.008 A 
ATOM     16  C   UNL     1       2.557   0.139  -0.646  0.00  0.00    -0.030 A 
ATOM     17  C   UNL     1       3.372   1.250  -0.938  0.00  0.00    +0.008 A 
ATOM     18  C   UNL     1       4.755   1.182  -0.754  0.00  0.00    +0.046 A 
BRANCH  13  20
ATOM     19  C   UNL     1       7.484  -1.116   0.387  0.00  0.00    +0.277 C 
ATOM     20  O   UNL     1       6.746  -0.001  -0.101  0.00  0.00    -0.495 OA
ENDBRANCH  13  20
ENDBRANCH   1  16
BRANCH   9  21
ATOM     21  C   UNL     1      -2.641  -0.650   0.657  0.00  0.00    +0.129 C 
BRANCH  21  22
ATOM     22  C   UNL     1      -3.960   0.074   1.003  0.00  0.00    +0.103 C 
BRANCH  22  23
ATOM     23  N   UNL     1      -4.865  -0.694   1.887  0.00  0.00    -0.307 NA
ATOM     24  C   UNL     1      -4.251  -1.040   3.177  0.00  0.00    +0.104 C 
ATOM     25  C   UNL     1      -5.435  -1.881   1.231  0.00  0.00    +0.104 C 
ENDBRANCH  22  23
ENDBRANCH  21  22
ENDBRANCH   9  21
BRANCH  12  26
ATOM     26  O   UNL     1       1.059   2.141   0.684  0.00  0.00    -0.451 OA
BRANCH  26  27
ATOM     27  C   UNL     1       0.967   2.811   1.909  0.00  0.00    +0.305 C 
ATOM     28  C   UNL     1       1.737   4.071   2.111  0.00  0.00    +0.136 C 
ATOM     29  O   UNL     1       0.281   2.337   2.854  0.00  0.00    -0.251 OA
ENDBRANCH  26  27
ENDBRANCH  12  26
TORSDOF 7
