REMARK  Name = 
REMARK  10 active torsions:
REMARK  status: ('A' for Active; 'I' for Inactive)
REMARK    1  A    between atoms: C_1  and  N_2
REMARK    2  A    between atoms: N_11  and  C_12
REMARK    3  A    between atoms: C_15  and  N_16
REMARK    4  A    between atoms: N_16  and  C_17
REMARK    5  A    between atoms: N_16  and  C_18
REMARK    6  A    between atoms: C_18  and  C_19
REMARK    7  A    between atoms: C_19  and  O_20
REMARK    8  A    between atoms: O_20  and  C_21
REMARK    9  A    between atoms: C_21  and  C_22
REMARK   10  A    between atoms: C_21  and  C_28
REMARK                            x       y       z     vdW  Elec       q    Type
REMARK                         _______ _______ _______ _____ _____    ______ ____
ROOT
ATOM      1  C   UNL     1       1.004   2.402  -0.021  0.00  0.00    +0.155 C 
ATOM      2  N   UNL     1       0.429   1.051  -0.051  0.00  0.00    -0.279 N 
ATOM      3  C   UNL     1       1.222  -0.041  -0.225  0.00  0.00    +0.171 A 
ATOM      4  C   UNL     1       0.735  -1.298  -0.209  0.00  0.00    +0.174 A 
ATOM      5  N   UNL     1       1.722  -2.188  -0.386  0.00  0.00    -0.209 NA
ATOM      6  C   UNL     1       2.811  -1.385  -0.509  0.00  0.00    +0.225 A 
ATOM      7 CL   UNL     1       4.425  -2.015  -0.764  0.00  0.00    -0.041 Cl
ATOM      8  N   UNL     1       2.552  -0.055  -0.413  0.00  0.00    -0.198 NA
ATOM      9  C   UNL     1      -0.614  -1.527  -0.007  0.00  0.00    +0.284 A 
ATOM     10  O   UNL     1      -1.058  -2.707   0.025  0.00  0.00    -0.265 OA
ATOM     11  N   UNL     1      -1.443  -0.441   0.164  0.00  0.00    -0.262 N 
ATOM     12  C   UNL     1      -2.878  -0.647   0.421  0.00  0.00    +0.157 C 
ATOM     13  C   UNL     1      -0.915   0.841   0.174  0.00  0.00    +0.333 A 
ATOM     14  O   UNL     1      -1.671   1.829   0.397  0.00  0.00    -0.246 OA
ENDROOT
TORSDOF 0
REMARK  Name = 
REMARK  10 active torsions:
REMARK  status: ('A' for Active; 'I' for Inactive)
REMARK    1  A    between atoms: C_1  and  N_2
REMARK    2  A    between atoms: N_11  and  C_12
REMARK    3  A    between atoms: C_15  and  N_16
REMARK    4  A    between atoms: N_16  and  C_17
REMARK    5  A    between atoms: N_16  and  C_18
REMARK    6  A    between atoms: C_18  and  C_19
REMARK    7  A    between atoms: C_19  and  O_20
REMARK    8  A    between atoms: O_20  and  C_21
REMARK    9  A    between atoms: C_21  and  C_22
REMARK   10  A    between atoms: C_21  and  C_28
REMARK                            x       y       z     vdW  Elec       q    Type
REMARK                         _______ _______ _______ _____ _____    ______ ____
ROOT
ATOM      1  C   UNL     1      -0.619   0.715  -0.740  0.00  0.00    +0.178 C 
ENDROOT
BRANCH   1   2
ATOM      2  C   UNL     1      -1.092  -0.715  -0.562  0.00  0.00    -0.015 A 
ATOM      3  C   UNL     1      -0.956  -1.370   0.675  0.00  0.00    +0.006 A 
ATOM      4  C   UNL     1      -1.386  -2.691   0.827  0.00  0.00    +0.000 A 
ATOM      5  C   UNL     1      -1.960  -3.369  -0.252  0.00  0.00    +0.000 A 
ATOM      6  C   UNL     1      -2.106  -2.726  -1.483  0.00  0.00    +0.000 A 
ATOM      7  C   UNL     1      -1.676  -1.404  -1.640  0.00  0.00    +0.006 A 
ENDBRANCH   1   2
BRANCH   1   8
ATOM      8  C   UNL     1      -1.496   1.639   0.078  0.00  0.00    -0.015 A 
ATOM      9  C   UNL     1      -2.718   2.089  -0.455  0.00  0.00    +0.006 A 
ATOM     10  C   UNL     1      -3.560   2.912   0.299  0.00  0.00    +0.000 A 
ATOM     11  C   UNL     1      -3.197   3.286   1.595  0.00  0.00    +0.000 A 
ATOM     12  C   UNL     1      -1.994   2.833   2.142  0.00  0.00    +0.000 A 
ATOM     13  C   UNL     1      -1.149   2.009   1.392  0.00  0.00    +0.006 A 
ENDBRANCH   1   8
BRANCH   1  14
ATOM     14  O   UNL     1       0.736   0.847  -0.338  0.00  0.00    -0.369 OA
BRANCH  14  15
ATOM     15  C   UNL     1       1.608   0.415  -1.363  0.00  0.00    +0.142 C 
BRANCH  15  16
ATOM     16  C   UNL     1       3.073   0.468  -0.889  0.00  0.00    -0.051 C 
BRANCH  16  18
ATOM     17  C   UNL     1       2.880  -0.047   1.517  0.00  0.00    -0.097 C 
ATOM     18  N   UNL     1       3.426  -0.464   0.213  0.00  0.00    +0.377 N 
ATOM     19  C   UNL     1       3.076  -1.866  -0.080  0.00  0.00    -0.097 C 
ATOM     20  H   UNL     1       4.470  -0.427   0.304  0.00  0.00    -0.083 HD
ENDBRANCH  16  18
ENDBRANCH  15  16
ENDBRANCH  14  15
ENDBRANCH   1  14
TORSDOF 6
