REMARK  Name = 
REMARK  5 active torsions:
REMARK  status: ('A' for Active; 'I' for Inactive)
REMARK    1  A    between atoms: O_1  and  C_2
REMARK    2  A    between atoms: C_2  and  C_3
REMARK    3  A    between atoms: C_3  and  S_4
REMARK    4  A    between atoms: C_3  and  C_5
REMARK    5  A    between atoms: C_5  and  S_6
REMARK                            x       y       z     vdW  Elec       q    Type
REMARK                         _______ _______ _______ _____ _____    ______ ____
ROOT
ATOM      1  C   UNL     1       0.083   0.372   0.081  0.00  0.00    +0.078 C 
ENDROOT
BRANCH   1   2
ATOM      2  S   UNL     1       0.336   2.095  -0.474  0.00  0.00    -0.172 S 
ATOM      3  H   UNL     1      -0.427   2.634   0.580  0.00  0.00    +0.102 HD
ENDBRANCH   1   2
BRANCH   1   4
ATOM      4  C   UNL     1      -1.389  -0.016  -0.127  0.00  0.00    +0.170 C 
BRANCH   4   5
ATOM      5  O   UNL     1      -1.647  -1.295   0.387  0.00  0.00    -0.394 OA
ATOM      6  H   UNL     1      -1.669  -1.205   1.376  0.00  0.00    +0.209 HD
ENDBRANCH   4   5
ENDBRANCH   1   4
BRANCH   1   7
ATOM      7  C   UNL     1       1.019  -0.572  -0.690  0.00  0.00    +0.081 C 
BRANCH   7   8
ATOM      8  S   UNL     1       2.767  -0.260  -0.278  0.00  0.00    -0.177 S 
ATOM      9  H   UNL     1       2.619  -0.714   1.046  0.00  0.00    +0.102 HD
ENDBRANCH   7   8
ENDBRANCH   1   7
TORSDOF 5
