REMARK  Name = 
REMARK  8 active torsions:
REMARK  status: ('A' for Active; 'I' for Inactive)
REMARK    1  A    between atoms: C_1  and  C_2
REMARK    2  A    between atoms: C_2  and  C_3
REMARK    3  A    between atoms: C_2  and  C_17
REMARK    4  A    between atoms: C_4  and  C_5
REMARK    5  A    between atoms: C_5  and  C_6
REMARK    6  A    between atoms: C_6  and  N_7
REMARK    7  A    between atoms: N_7  and  C_8
REMARK    8  A    between atoms: N_7  and  C_9
REMARK                            x       y       z     vdW  Elec       q    Type
REMARK                         _______ _______ _______ _____ _____    ______ ____
ROOT
ATOM      1  C   UNL     1      -0.344   0.153  -0.938  0.00  0.00    -0.032 C 
ATOM      2  C   UNL     1       0.944   0.399  -1.240  0.00  0.00    -0.060 C 
ATOM      3  C   UNL     1       1.254   1.873  -1.232  0.00  0.00    +0.066 C 
ATOM      4  C   UNL     1      -0.071   2.442  -0.875  0.00  0.00    -0.036 A 
ATOM      5  C   UNL     1      -0.417   3.786  -0.729  0.00  0.00    +0.004 A 
ATOM      6  C   UNL     1      -1.747   4.105  -0.416  0.00  0.00    +0.000 A 
ATOM      7  C   UNL     1      -2.704   3.084  -0.263  0.00  0.00    +0.001 A 
ATOM      8  C   UNL     1      -2.335   1.738  -0.418  0.00  0.00    +0.008 A 
ATOM      9  C   UNL     1      -1.001   1.441  -0.717  0.00  0.00    -0.018 A 
ENDROOT
BRANCH   1  11
ATOM     10  C   UNL     1      -1.839  -1.350  -2.256  0.00  0.00    +0.019 C 
ATOM     11  C   UNL     1      -1.026  -1.203  -0.963  0.00  0.00    +0.065 C 
BRANCH  11  12
ATOM     12  C   UNL     1      -1.854  -1.429   0.286  0.00  0.00    +0.048 A 
ATOM     13  C   UNL     1      -1.240  -1.430   1.549  0.00  0.00    +0.024 A 
ATOM     14  C   UNL     1      -2.013  -1.641   2.692  0.00  0.00    +0.003 A 
ATOM     15  C   UNL     1      -3.386  -1.856   2.571  0.00  0.00    +0.020 A 
ATOM     16  C   UNL     1      -3.967  -1.861   1.302  0.00  0.00    +0.111 A 
ATOM     17  N   UNL     1      -3.198  -1.652   0.201  0.00  0.00    -0.259 NA
ENDBRANCH  11  12
ENDBRANCH   1  11
BRANCH   2  18
ATOM     18  C   UNL     1       1.980  -0.632  -1.607  0.00  0.00    +0.046 C 
BRANCH  18  19
ATOM     19  C   UNL     1       2.557  -1.339  -0.375  0.00  0.00    +0.088 C 
BRANCH  19  20
ATOM     20  N   UNL     1       3.348  -0.385   0.439  0.00  0.00    -0.308 NA
ATOM     21  C   UNL     1       2.650  -0.038   1.688  0.00  0.00    +0.104 C 
ATOM     22  C   UNL     1       4.681  -0.924   0.749  0.00  0.00    +0.104 C 
ENDBRANCH  19  20
ENDBRANCH  18  19
ENDBRANCH   2  18
TORSDOF 5
