REMARK  Name = 
REMARK  2 active torsions:
REMARK  status: ('A' for Active; 'I' for Inactive)
REMARK    1  A    between atoms: C_1  and  S_2
REMARK    2  A    between atoms: S_2  and  C_3
REMARK                            x       y       z     vdW  Elec       q    Type
REMARK                         _______ _______ _______ _____ _____    ______ ____
ROOT
ATOM      1  C   UNL     1      -1.353   0.417   0.233  0.00  0.00    +0.121 C 
ATOM      2  S   UNL     1       0.040   0.355  -0.907  0.00  0.00    +0.016 S 
ATOM      3  C   UNL     1       1.414  -0.218   0.108  0.00  0.00    +0.121 C 
ATOM      4  O   UNL     1      -0.275  -0.844  -1.792  0.00  0.00    -0.258 OA
ENDROOT
TORSDOF 0
