REMARK  Name = 
REMARK  16 active torsions:
REMARK  status: ('A' for Active; 'I' for Inactive)
REMARK    1  A    between atoms: C_1  and  C_2
REMARK    2  A    between atoms: C_2  and  C_3
REMARK    3  A    between atoms: C_3  and  C_4
REMARK    4  A    between atoms: C_4  and  C_5
REMARK    5  A    between atoms: C_5  and  C_6
REMARK    6  A    between atoms: C_6  and  O_7
REMARK    7  A    between atoms: C_6  and  C_8
REMARK    8  A    between atoms: C_9  and  C_10
REMARK    9  A    between atoms: C_11  and  O_12
REMARK   10  A    between atoms: C_16  and  C_17
REMARK   11  A    between atoms: C_17  and  C_18
REMARK   12  A    between atoms: C_19  and  C_20
REMARK   13  A    between atoms: C_20  and  C_21
REMARK   14  A    between atoms: C_21  and  C_22
REMARK   15  A    between atoms: C_22  and  C_23
REMARK   16  A    between atoms: C_23  and  O_24
REMARK                            x       y       z     vdW  Elec       q    Type
REMARK                         _______ _______ _______ _____ _____    ______ ____
ROOT
ATOM      1  C   UNL     1      -0.066  -1.061   0.198  0.00  0.00    +0.051 C 
ATOM      2  C   UNL     1       0.601  -2.097  -0.750  0.00  0.00    +0.129 C 
ATOM      3  C   UNL     1       1.430  -1.306  -1.766  0.00  0.00    +0.106 C 
ATOM      4  C   UNL     1       1.524   0.058  -1.195  0.00  0.00    +0.140 C 
ATOM      5  O   UNL     1       2.131   0.962  -1.747  0.00  0.00    -0.297 OA
ATOM      6  C   UNL     1       0.749   0.251   0.059  0.00  0.00    +0.068 C 
ENDROOT
BRANCH   1   8
ATOM      7  C   UNL     1      -2.435  -1.816   0.043  0.00  0.00    -0.000 C 
ATOM      8  C   UNL     1      -1.521  -0.857  -0.180  0.00  0.00    -0.022 C 
BRANCH   7   9
ATOM      9  C   UNL     1      -3.889  -1.623  -0.314  0.00  0.00    +0.137 C 
BRANCH   9  10
ATOM     10  O   UNL     1      -4.532  -2.872  -0.327  0.00  0.00    -0.388 OA
ATOM     11  H   UNL     1      -4.258  -3.329  -1.168  0.00  0.00    +0.210 HD
ENDBRANCH   9  10
BRANCH   9  12
ATOM     12  C   UNL     1      -4.569  -0.710   0.725  0.00  0.00    +0.035 C 
BRANCH  12  13
ATOM     13  C   UNL     1      -6.067  -0.478   0.452  0.00  0.00    +0.003 C 
BRANCH  13  14
ATOM     14  C   UNL     1      -6.372   0.364  -0.801  0.00  0.00    -0.000 C 
BRANCH  14  16
ATOM     15  C   UNL     1      -4.649   2.095  -1.539  0.00  0.00    +0.004 C 
ATOM     16  C   UNL     1      -5.894   1.828  -0.696  0.00  0.00    -0.003 C 
ENDBRANCH  14  16
ENDBRANCH  13  14
ENDBRANCH  12  13
ENDBRANCH   9  12
ENDBRANCH   7   9
ENDBRANCH   1   8
BRANCH   2  17
ATOM     17  O   UNL     1       1.445  -2.951  -0.020  0.00  0.00    -0.391 OA
ATOM     18  H   UNL     1       0.854  -3.566   0.488  0.00  0.00    +0.210 HD
ENDBRANCH   2  17
BRANCH   6  19
ATOM     19  C   UNL     1       1.666   0.548   1.270  0.00  0.00    +0.038 C 
BRANCH  19  20
ATOM     20  C   UNL     1       2.619  -0.580   1.610  0.00  0.00    -0.030 C 
ATOM     21  C   UNL     1       3.939  -0.578   1.359  0.00  0.00    -0.031 C 
BRANCH  21  22
ATOM     22  C   UNL     1       4.675   0.577   0.728  0.00  0.00    +0.027 C 
BRANCH  22  23
ATOM     23  C   UNL     1       6.175   0.276   0.607  0.00  0.00    +0.015 C 
BRANCH  23  24
ATOM     24  C   UNL     1       6.940   1.400  -0.102  0.00  0.00    +0.121 C 
BRANCH  24  25
ATOM     25  C   UNL     1       6.934   2.664   0.701  0.00  0.00    +0.305 C 
ATOM     26  O   UNL     1       6.216   3.637   0.346  0.00  0.00    -0.251 OA
BRANCH  25  27
ATOM     27  O   UNL     1       7.688   2.746   1.867  0.00  0.00    -0.481 OA
ATOM     28  H   UNL     1       7.682   3.583   2.439  0.00  0.00    +0.295 HD
ENDBRANCH  25  27
ENDBRANCH  24  25
ENDBRANCH  23  24
ENDBRANCH  22  23
ENDBRANCH  21  22
ENDBRANCH  19  20
ENDBRANCH   6  19
TORSDOF 15
