REMARK  Name = 
REMARK  24 active torsions:
REMARK  status: ('A' for Active; 'I' for Inactive)
REMARK    1  A    between atoms: O_1  and  C_2
REMARK    2  A    between atoms: C_2  and  C_3
REMARK    3  A    between atoms: C_3  and  N_4
REMARK    4  A    between atoms: C_3  and  C_5
REMARK    5  A    between atoms: C_3  and  C_7
REMARK    6  A    between atoms: C_5  and  O_6
REMARK    7  A    between atoms: C_7  and  O_8
REMARK    8  A    between atoms: C_9  and  C_10
REMARK    9  A    between atoms: C_10  and  C_11
REMARK   10  A    between atoms: C_11  and  C_12
REMARK   11  A    between atoms: C_12  and  C_13
REMARK   12  A    between atoms: C_13  and  C_14
REMARK   13  A    between atoms: C_14  and  O_15
REMARK   14  A    between atoms: C_14  and  C_16
REMARK   15  A    between atoms: C_17  and  C_18
REMARK   16  A    between atoms: C_19  and  O_20
REMARK   17  A    between atoms: C_22  and  O_23
REMARK   18  A    between atoms: C_24  and  C_25
REMARK   19  A    between atoms: C_25  and  C_26
REMARK   20  A    between atoms: C_27  and  C_28
REMARK   21  A    between atoms: C_28  and  C_29
REMARK   22  A    between atoms: C_29  and  C_30
REMARK   23  A    between atoms: C_30  and  C_31
REMARK   24  A    between atoms: C_31  and  O_32
REMARK                            x       y       z     vdW  Elec       q    Type
REMARK                         _______ _______ _______ _____ _____    ______ ____
ROOT
ATOM      1  C   UNL     1      -0.077  -0.132  -0.158  0.00  0.00    +0.086 C 
ENDROOT
BRANCH   1   2
ATOM      2  N   UNL     1      -1.109   0.010   0.881  0.00  0.00    -0.319 NA
ATOM      3  H   UNL     1      -2.056   0.011   0.433  0.00  0.00    +0.119 HD
ATOM      4  H   UNL     1      -1.002   0.925   1.375  0.00  0.00    +0.119 HD
ENDBRANCH   1   2
BRANCH   1   5
ATOM      5  C   UNL     1      -0.241  -1.518  -0.832  0.00  0.00    +0.182 C 
BRANCH   5   6
ATOM      6  O   UNL     1      -0.116  -2.561   0.102  0.00  0.00    -0.393 OA
ATOM      7  H   UNL     1      -0.998  -2.657   0.549  0.00  0.00    +0.209 HD
ENDBRANCH   5   6
ENDBRANCH   1   5
BRANCH   1   8
ATOM      8  C   UNL     1       1.331  -0.054   0.489  0.00  0.00    +0.182 C 
BRANCH   8   9
ATOM      9  O   UNL     1       1.533   1.174   1.140  0.00  0.00    -0.393 OA
ATOM     10  H   UNL     1       2.089   1.736   0.540  0.00  0.00    +0.209 HD
ENDBRANCH   8   9
ENDBRANCH   1   8
BRANCH   1  11
ATOM     11  C   UNL     1      -0.244   0.962  -1.251  0.00  0.00    +0.182 C 
BRANCH  11  12
ATOM     12  O   UNL     1      -0.216   2.254  -0.704  0.00  0.00    -0.393 OA
ATOM     13  H   UNL     1      -1.153   2.495  -0.479  0.00  0.00    +0.209 HD
ENDBRANCH  11  12
ENDBRANCH   1  11
TORSDOF 7
REMARK  Name = 
REMARK  24 active torsions:
REMARK  status: ('A' for Active; 'I' for Inactive)
REMARK    1  A    between atoms: O_1  and  C_2
REMARK    2  A    between atoms: C_2  and  C_3
REMARK    3  A    between atoms: C_3  and  N_4
REMARK    4  A    between atoms: C_3  and  C_5
REMARK    5  A    between atoms: C_3  and  C_7
REMARK    6  A    between atoms: C_5  and  O_6
REMARK    7  A    between atoms: C_7  and  O_8
REMARK    8  A    between atoms: C_9  and  C_10
REMARK    9  A    between atoms: C_10  and  C_11
REMARK   10  A    between atoms: C_11  and  C_12
REMARK   11  A    between atoms: C_12  and  C_13
REMARK   12  A    between atoms: C_13  and  C_14
REMARK   13  A    between atoms: C_14  and  O_15
REMARK   14  A    between atoms: C_14  and  C_16
REMARK   15  A    between atoms: C_17  and  C_18
REMARK   16  A    between atoms: C_19  and  O_20
REMARK   17  A    between atoms: C_22  and  O_23
REMARK   18  A    between atoms: C_24  and  C_25
REMARK   19  A    between atoms: C_25  and  C_26
REMARK   20  A    between atoms: C_27  and  C_28
REMARK   21  A    between atoms: C_28  and  C_29
REMARK   22  A    between atoms: C_29  and  C_30
REMARK   23  A    between atoms: C_30  and  C_31
REMARK   24  A    between atoms: C_31  and  O_32
REMARK                            x       y       z     vdW  Elec       q    Type
REMARK                         _______ _______ _______ _____ _____    ______ ____
ROOT
ATOM      1  C   UNL     1       0.368  -2.671   1.487  0.00  0.00    +0.046 C 
ATOM      2  C   UNL     1       0.411  -4.193   1.626  0.00  0.00    +0.124 C 
ATOM      3  C   UNL     1       1.872  -4.551   1.429  0.00  0.00    +0.063 C 
ATOM      4  C   UNL     1       2.382  -3.573   0.374  0.00  0.00    +0.121 C 
ATOM      5  C   UNL     1       1.497  -2.306   0.493  0.00  0.00    +0.031 C 
ENDROOT
BRANCH   1   7
ATOM      6  C   UNL     1      -1.669  -1.233   1.598  0.00  0.00    -0.000 C 
ATOM      7  C   UNL     1      -0.979  -2.205   0.983  0.00  0.00    -0.022 C 
BRANCH   6   8
ATOM      8  C   UNL     1      -2.942  -0.677   1.002  0.00  0.00    +0.137 C 
BRANCH   8   9
ATOM      9  O   UNL     1      -3.630   0.093   1.957  0.00  0.00    -0.388 OA
ATOM     10  H   UNL     1      -3.036   0.845   2.224  0.00  0.00    +0.210 HD
ENDBRANCH   8   9
BRANCH   8  11
ATOM     11  C   UNL     1      -2.628   0.154  -0.261  0.00  0.00    +0.035 C 
BRANCH  11  12
ATOM     12  C   UNL     1      -3.891   0.674  -0.977  0.00  0.00    +0.003 C 
BRANCH  12  13
ATOM     13  C   UNL     1      -4.325   2.082  -0.514  0.00  0.00    -0.000 C 
BRANCH  13  15
ATOM     14  C   UNL     1      -2.277   3.399  -1.306  0.00  0.00    +0.004 C 
ATOM     15  C   UNL     1      -3.791   3.216  -1.406  0.00  0.00    -0.003 C 
ENDBRANCH  13  15
ENDBRANCH  12  13
ENDBRANCH  11  12
ENDBRANCH   8  11
ENDBRANCH   6   8
ENDBRANCH   1   7
BRANCH   2  16
ATOM     16  O   UNL     1      -0.028  -4.606   2.892  0.00  0.00    -0.391 OA
ATOM     17  H   UNL     1      -1.017  -4.522   2.888  0.00  0.00    +0.210 HD
ENDBRANCH   2  16
BRANCH   4  18
ATOM     18  O   UNL     1       3.749  -3.301   0.564  0.00  0.00    -0.391 OA
ATOM     19  H   UNL     1       4.240  -4.121   0.295  0.00  0.00    +0.210 HD
ENDBRANCH   4  18
BRANCH   5  20
ATOM     20  C   UNL     1       2.283  -1.042   0.925  0.00  0.00    +0.033 C 
BRANCH  20  21
ATOM     21  C   UNL     1       1.393   0.165   1.106  0.00  0.00    -0.031 C 
ATOM     22  C   UNL     1       0.974   0.976   0.118  0.00  0.00    -0.031 C 
BRANCH  22  23
ATOM     23  C   UNL     1       1.384   0.863  -1.330  0.00  0.00    +0.027 C 
BRANCH  23  24
ATOM     24  C   UNL     1       2.698   1.602  -1.615  0.00  0.00    +0.015 C 
BRANCH  24  25
ATOM     25  C   UNL     1       2.581   3.115  -1.380  0.00  0.00    +0.121 C 
BRANCH  25  26
ATOM     26  C   UNL     1       3.839   3.811  -1.794  0.00  0.00    +0.305 C 
ATOM     27  O   UNL     1       3.848   4.551  -2.815  0.00  0.00    -0.251 OA
BRANCH  26  28
ATOM     28  O   UNL     1       5.008   3.626  -1.060  0.00  0.00    -0.481 OA
ATOM     29  H   UNL     1       5.869   4.082  -1.335  0.00  0.00    +0.295 HD
ENDBRANCH  26  28
ENDBRANCH  25  26
ENDBRANCH  24  25
ENDBRANCH  23  24
ENDBRANCH  22  23
ENDBRANCH  20  21
ENDBRANCH   5  20
TORSDOF 16
