REMARK  Name = 
REMARK  5 active torsions:
REMARK  status: ('A' for Active; 'I' for Inactive)
REMARK    1  A    between atoms: C_1  and  N_2
REMARK    2  A    between atoms: C_5  and  O_8
REMARK    3  A    between atoms: O_8  and  C_9
REMARK    4  A    between atoms: C_9  and  C_10
REMARK    5  A    between atoms: C_9  and  C_16
REMARK                            x       y       z     vdW  Elec       q    Type
REMARK                         _______ _______ _______ _____ _____    ______ ____
ROOT
ATOM      1  C   UNL     1      -0.907  -0.221  -0.533  0.00  0.00    +0.179 C 
ENDROOT
BRANCH   1   2
ATOM      2  C   UNL     1      -1.311   1.025   0.229  0.00  0.00    -0.014 A 
ATOM      3  C   UNL     1      -1.377   1.024   1.635  0.00  0.00    +0.006 A 
ATOM      4  C   UNL     1      -1.774   2.174   2.324  0.00  0.00    +0.000 A 
ATOM      5  C   UNL     1      -2.119   3.329   1.618  0.00  0.00    +0.000 A 
ATOM      6  C   UNL     1      -2.071   3.336   0.222  0.00  0.00    +0.000 A 
ATOM      7  C   UNL     1      -1.673   2.188  -0.471  0.00  0.00    +0.006 A 
ENDBRANCH   1   2
BRANCH   1   8
ATOM      8  C   UNL     1      -2.119  -1.106  -0.711  0.00  0.00    -0.014 A 
ATOM      9  C   UNL     1      -2.895  -1.009  -1.881  0.00  0.00    +0.006 A 
ATOM     10  C   UNL     1      -4.040  -1.796  -2.038  0.00  0.00    +0.000 A 
ATOM     11  C   UNL     1      -4.429  -2.676  -1.026  0.00  0.00    +0.000 A 
ATOM     12  C   UNL     1      -3.677  -2.769   0.147  0.00  0.00    +0.000 A 
ATOM     13  C   UNL     1      -2.531  -1.985   0.309  0.00  0.00    +0.006 A 
ENDBRANCH   1   8
BRANCH   1  14
ATOM     14  O   UNL     1       0.107  -0.937   0.157  0.00  0.00    -0.364 OA
BRANCH  14  19
ATOM     15  C   UNL     1       4.354   1.366   0.063  0.00  0.00    +0.104 C 
ATOM     16  N   UNL     1       4.232  -0.097  -0.053  0.00  0.00    -0.305 NA
ATOM     17  C   UNL     1       3.558  -0.513  -1.311  0.00  0.00    +0.086 C 
ATOM     18  C   UNL     1       2.153  -1.113  -1.105  0.00  0.00    +0.047 C 
ATOM     19  C   UNL     1       1.387  -0.348  -0.022  0.00  0.00    +0.122 C 
ATOM     20  C   UNL     1       2.146  -0.393   1.321  0.00  0.00    +0.047 C 
ATOM     21  C   UNL     1       3.650  -0.701   1.163  0.00  0.00    +0.086 C 
ENDBRANCH  14  19
ENDBRANCH   1  14
TORSDOF 4
