REMARK  Name = 
REMARK  8 active torsions:
REMARK  status: ('A' for Active; 'I' for Inactive)
REMARK    1  A    between atoms: C_1  and  N_2
REMARK    2  A    between atoms: N_2  and  C_3
REMARK    3  A    between atoms: N_2  and  C_4
REMARK    4  A    between atoms: C_4  and  C_5
REMARK    5  A    between atoms: C_5  and  O_6
REMARK    6  A    between atoms: O_6  and  C_7
REMARK    7  A    between atoms: C_7  and  C_8
REMARK    8  A    between atoms: C_7  and  C_14
REMARK                            x       y       z     vdW  Elec       q    Type
REMARK                         _______ _______ _______ _____ _____    ______ ____
ROOT
ATOM      1  C   UNL     1       0.156   1.085  -0.121  0.00  0.00    +0.178 C 
ENDROOT
BRANCH   1   2
ATOM      2  C   UNL     1       0.789  -0.233  -0.513  0.00  0.00    -0.015 A 
ATOM      3  C   UNL     1       0.859  -1.301   0.402  0.00  0.00    +0.006 A 
ATOM      4  C   UNL     1       1.452  -2.511   0.032  0.00  0.00    +0.000 A 
ATOM      5  C   UNL     1       1.991  -2.664  -1.248  0.00  0.00    +0.000 A 
ATOM      6  C   UNL     1       1.943  -1.605  -2.158  0.00  0.00    +0.000 A 
ATOM      7  C   UNL     1       1.349  -0.393  -1.793  0.00  0.00    +0.006 A 
ENDBRANCH   1   2
BRANCH   1   8
ATOM      8  C   UNL     1       1.145   1.884   0.700  0.00  0.00    -0.015 A 
ATOM      9  C   UNL     1       1.250   1.703   2.092  0.00  0.00    +0.006 A 
ATOM     10  C   UNL     1       2.198   2.421   2.829  0.00  0.00    +0.000 A 
ATOM     11  C   UNL     1       3.057   3.314   2.184  0.00  0.00    +0.000 A 
ATOM     12  C   UNL     1       2.973   3.488   0.801  0.00  0.00    +0.000 A 
ATOM     13  C   UNL     1       2.027   2.774   0.060  0.00  0.00    +0.006 A 
ENDBRANCH   1   8
BRANCH   1  14
ATOM     14  O   UNL     1      -1.024   0.850   0.640  0.00  0.00    -0.366 OA
BRANCH  14  15
ATOM     15  C   UNL     1      -2.205   1.056  -0.115  0.00  0.00    +0.176 C 
BRANCH  15  16
ATOM     16  C   UNL     1      -2.479  -0.101  -1.090  0.00  0.00    +0.112 C 
BRANCH  16  18
ATOM     17  C   UNL     1      -2.103  -2.464  -1.447  0.00  0.00    +0.104 C 
ATOM     18  N   UNL     1      -2.301  -1.415  -0.434  0.00  0.00    -0.306 NA
ATOM     19  C   UNL     1      -3.466  -1.754   0.403  0.00  0.00    +0.104 C 
ENDBRANCH  16  18
ENDBRANCH  15  16
ENDBRANCH  14  15
ENDBRANCH   1  14
TORSDOF 6
