REMARK  Name = 
REMARK  6 active torsions:
REMARK  status: ('A' for Active; 'I' for Inactive)
REMARK    1  A    between atoms: C_1  and  O_2
REMARK    2  A    between atoms: O_2  and  S_3
REMARK    3  A    between atoms: C_7  and  N_8
REMARK    4  A    between atoms: N_8  and  C_9
REMARK    5  A    between atoms: C_15  and  C_16
REMARK    6  A    between atoms: C_15  and  C_22
REMARK                            x       y       z     vdW  Elec       q    Type
REMARK                         _______ _______ _______ _____ _____    ______ ____
ROOT
ATOM      1  S   UNL     1       1.196   0.293  -0.153  0.00  0.00    +0.238 S 
ATOM      2  O   UNL     1       1.587  -1.208  -0.800  0.00  0.00    -0.022 OA
ATOM      3  O   UNL     1       2.252   1.284  -0.553  0.00  0.00    -0.116 OA
ATOM      4  O   UNL     1       1.158   0.203   1.347  0.00  0.00    -0.116 OA
ENDROOT
BRANCH   1   6
ATOM      5  C   UNL     1      -1.262  -0.158  -0.437  0.00  0.00    +0.232 C 
ATOM      6  O   UNL     1      -0.301   0.821  -0.745  0.00  0.00    -0.217 OA
ENDBRANCH   1   6
TORSDOF 1
REMARK  Name = 
REMARK  6 active torsions:
REMARK  status: ('A' for Active; 'I' for Inactive)
REMARK    1  A    between atoms: C_1  and  O_2
REMARK    2  A    between atoms: O_2  and  S_3
REMARK    3  A    between atoms: C_7  and  N_8
REMARK    4  A    between atoms: N_8  and  C_9
REMARK    5  A    between atoms: C_15  and  C_16
REMARK    6  A    between atoms: C_15  and  C_22
REMARK                            x       y       z     vdW  Elec       q    Type
REMARK                         _______ _______ _______ _____ _____    ______ ____
ROOT
ATOM      1  C   UNL     1       4.134  -0.184   1.380  0.00  0.00    -0.092 C 
ATOM      2  N   UNL     1       3.293  -0.053   0.167  0.00  0.00    +0.377 N 
ATOM      3  C   UNL     1       4.197   0.035  -1.004  0.00  0.00    -0.092 C 
ATOM      4  C   UNL     1       2.438  -1.278   0.026  0.00  0.00    -0.071 C 
ATOM      5  C   UNL     1       1.059  -1.137   0.684  0.00  0.00    +0.013 C 
ATOM      6  C   UNL     1       0.313   0.017   0.051  0.00  0.00    -0.065 C 
ATOM      7  C   UNL     1       1.153   1.161  -0.474  0.00  0.00    +0.013 C 
ATOM      8  C   UNL     1       2.497   1.216   0.272  0.00  0.00    -0.071 C 
ATOM      9  C   UNL     1      -1.038   0.017  -0.058  0.00  0.00    -0.012 C 
ENDROOT
BRANCH   9  10
ATOM     10  C   UNL     1      -1.753   1.105  -0.755  0.00  0.00    -0.017 A 
ATOM     11  C   UNL     1      -2.189   2.230  -0.037  0.00  0.00    +0.008 A 
ATOM     12  C   UNL     1      -2.878   3.256  -0.689  0.00  0.00    +0.001 A 
ATOM     13  C   UNL     1      -3.142   3.158  -2.059  0.00  0.00    +0.000 A 
ATOM     14  C   UNL     1      -2.711   2.037  -2.780  0.00  0.00    +0.001 A 
ATOM     15  C   UNL     1      -2.013   1.014  -2.131  0.00  0.00    +0.008 A 
ENDBRANCH   9  10
BRANCH   9  16
ATOM     16  C   UNL     1      -1.865  -1.049   0.546  0.00  0.00    -0.017 A 
ATOM     17  C   UNL     1      -2.508  -1.995  -0.267  0.00  0.00    +0.008 A 
ATOM     18  C   UNL     1      -3.276  -3.011   0.310  0.00  0.00    +0.001 A 
ATOM     19  C   UNL     1      -3.415  -3.083   1.696  0.00  0.00    +0.000 A 
ATOM     20  C   UNL     1      -2.785  -2.138   2.509  0.00  0.00    +0.001 A 
ATOM     21  C   UNL     1      -2.010  -1.125   1.937  0.00  0.00    +0.008 A 
ENDBRANCH   9  16
TORSDOF 2
