REMARK  Name = 
REMARK  11 active torsions:
REMARK  status: ('A' for Active; 'I' for Inactive)
REMARK    1  A    between atoms: C_1  and  C_2
REMARK    2  A    between atoms: C_2  and  O_3
REMARK    3  A    between atoms: O_3  and  C_4
REMARK    4  A    between atoms: C_4  and  C_6
REMARK    5  A    between atoms: C_6  and  C_29
REMARK    6  A    between atoms: N_9  and  C_10
REMARK    7  A    between atoms: C_10  and  C_11
REMARK    8  A    between atoms: C_11  and  C_12
REMARK    9  A    between atoms: C_12  and  C_13
REMARK   10  A    between atoms: C_12  and  C_15
REMARK   11  A    between atoms: C_12  and  C_21
REMARK                            x       y       z     vdW  Elec       q    Type
REMARK                         _______ _______ _______ _____ _____    ______ ____
ROOT
ATOM      1  C   UNL     1       3.078  -0.188  -0.410  0.00  0.00    +0.095 C 
ATOM      2  C   UNL     1       2.177   0.898   0.256  0.00  0.00    +0.038 C 
ATOM      3  C   UNL     1       0.728   0.823  -0.246  0.00  0.00    +0.086 C 
ATOM      4  N   UNL     1       0.075  -0.470   0.096  0.00  0.00    -0.302 NA
ATOM      5  C   UNL     1       1.029  -1.601   0.239  0.00  0.00    +0.086 C 
ATOM      6  C   UNL     1       2.231  -1.470  -0.711  0.00  0.00    +0.038 C 
ENDROOT
BRANCH   1   7
ATOM      7  C   UNL     1       4.271  -0.437   0.536  0.00  0.00    -0.031 A 
ATOM      8  C   UNL     1       5.290   0.539   0.634  0.00  0.00    +0.005 A 
ATOM      9  C   UNL     1       6.359   0.378   1.518  0.00  0.00    +0.000 A 
ATOM     10  C   UNL     1       6.424  -0.745   2.342  0.00  0.00    +0.000 A 
ATOM     11  C   UNL     1       5.412  -1.703   2.290  0.00  0.00    +0.000 A 
ATOM     12  C   UNL     1       4.339  -1.550   1.408  0.00  0.00    +0.005 A 
ENDBRANCH   1   7
BRANCH   1  13
ATOM     13  C   UNL     1       3.618   0.295  -1.751  0.00  0.00    +0.318 C 
ATOM     14  O   UNL     1       4.479  -0.401  -2.357  0.00  0.00    -0.250 OA
BRANCH  13  15
ATOM     15  O   UNL     1       3.144   1.480  -2.328  0.00  0.00    -0.464 OA
BRANCH  15  17
ATOM     16  C   UNL     1       5.015   2.714  -3.249  0.00  0.00    +0.048 C 
ATOM     17  C   UNL     1       3.677   2.039  -3.526  0.00  0.00    +0.229 C 
ENDBRANCH  15  17
ENDBRANCH  13  15
ENDBRANCH   1  13
BRANCH   4  18
ATOM     18  C   UNL     1      -1.028  -0.796  -0.837  0.00  0.00    +0.086 C 
BRANCH  18  19
ATOM     19  C   UNL     1      -2.237   0.162  -0.688  0.00  0.00    +0.046 C 
BRANCH  19  20
ATOM     20  C   UNL     1      -3.083  -0.000   0.617  0.00  0.00    +0.108 C 
BRANCH  20  21
ATOM     21  C   UNL     1      -4.176   1.085   0.593  0.00  0.00    -0.023 A 
ATOM     22  C   UNL     1      -5.459   0.823   0.056  0.00  0.00    +0.005 A 
ATOM     23  C   UNL     1      -6.426   1.829  -0.016  0.00  0.00    +0.000 A 
ATOM     24  C   UNL     1      -6.129   3.121   0.414  0.00  0.00    +0.000 A 
ATOM     25  C   UNL     1      -4.857   3.416   0.903  0.00  0.00    +0.000 A 
ATOM     26  C   UNL     1      -3.884   2.416   0.979  0.00  0.00    +0.005 A 
ENDBRANCH  20  21
BRANCH  20  27
ATOM     27  C   UNL     1      -3.722  -1.398   0.792  0.00  0.00    -0.023 A 
ATOM     28  C   UNL     1      -4.218  -1.786   2.060  0.00  0.00    +0.005 A 
ATOM     29  C   UNL     1      -4.853  -3.018   2.240  0.00  0.00    +0.000 A 
ATOM     30  C   UNL     1      -5.037  -3.876   1.158  0.00  0.00    +0.000 A 
ATOM     31  C   UNL     1      -4.602  -3.496  -0.111  0.00  0.00    +0.000 A 
ATOM     32  C   UNL     1      -3.967  -2.265  -0.300  0.00  0.00    +0.005 A 
ENDBRANCH  20  27
BRANCH  20  33
ATOM     33  C   UNL     1      -2.183   0.233   1.776  0.00  0.00    +0.079 C 
ATOM     34  N   UNL     1      -1.484   0.415   2.681  0.00  0.00    -0.195 NA
ENDBRANCH  20  33
ENDBRANCH  19  20
ENDBRANCH  18  19
ENDBRANCH   4  18
TORSDOF 10
