REMARK  Name = 
REMARK  7 active torsions:
REMARK  status: ('A' for Active; 'I' for Inactive)
REMARK    1  A    between atoms: O_1  and  C_2
REMARK    2  A    between atoms: C_2  and  C_3
REMARK    3  A    between atoms: C_2  and  C_12
REMARK    4  A    between atoms: C_2  and  C_18
REMARK    5  A    between atoms: C_3  and  C_4
REMARK    6  A    between atoms: C_4  and  C_5
REMARK    7  A    between atoms: C_5  and  N_6
REMARK                            x       y       z     vdW  Elec       q    Type
REMARK                         _______ _______ _______ _____ _____    ______ ____
ROOT
ATOM      1  C   UNL     1      -1.833   0.519  -0.700  0.00  0.00    +0.116 C 
ENDROOT
BRANCH   1   2
ATOM      2  C   UNL     1      -2.021  -0.976  -0.380  0.00  0.00    -0.012 A 
ATOM      3  C   UNL     1      -1.154  -1.693   0.478  0.00  0.00    +0.007 A 
ATOM      4  C   UNL     1      -1.393  -3.039   0.770  0.00  0.00    +0.000 A 
ATOM      5  C   UNL     1      -2.507  -3.687   0.236  0.00  0.00    +0.000 A 
ATOM      6  C   UNL     1      -3.392  -2.988  -0.585  0.00  0.00    +0.000 A 
ATOM      7  C   UNL     1      -3.158  -1.643  -0.884  0.00  0.00    +0.007 A 
ENDBRANCH   1   2
BRANCH   1   8
ATOM      8  C   UNL     1      -2.765   1.323   0.213  0.00  0.00    -0.012 A 
ATOM      9  C   UNL     1      -3.671   2.274  -0.307  0.00  0.00    +0.007 A 
ATOM     10  C   UNL     1      -4.500   3.010   0.545  0.00  0.00    +0.000 A 
ATOM     11  C   UNL     1      -4.435   2.819   1.925  0.00  0.00    +0.000 A 
ATOM     12  C   UNL     1      -3.537   1.895   2.459  0.00  0.00    +0.000 A 
ATOM     13  C   UNL     1      -2.705   1.156   1.614  0.00  0.00    +0.007 A 
ENDBRANCH   1   8
BRANCH   1  14
ATOM     14  O   UNL     1      -2.189   0.755  -2.047  0.00  0.00    -0.379 OA
ATOM     15  H   UNL     1      -1.721   0.093  -2.620  0.00  0.00    +0.211 HD
ENDBRANCH   1  14
BRANCH   1  16
ATOM     16  C   UNL     1      -0.382   1.050  -0.489  0.00  0.00    +0.046 C 
BRANCH  16  17
ATOM     17  C   UNL     1       0.668   0.386  -1.404  0.00  0.00    +0.019 C 
BRANCH  17  18
ATOM     18  C   UNL     1       2.099   0.697  -0.950  0.00  0.00    +0.084 C 
BRANCH  18  19
ATOM     19  N   UNL     1       2.367   0.099   0.380  0.00  0.00    -0.302 NA
ATOM     20  C   UNL     1       2.830  -1.307   0.316  0.00  0.00    +0.084 C 
ATOM     21  C   UNL     1       4.302  -1.437  -0.118  0.00  0.00    +0.015 C 
ATOM     22  C   UNL     1       5.212  -0.557   0.740  0.00  0.00    +0.002 C 
ATOM     23  C   UNL     1       4.708   0.885   0.754  0.00  0.00    +0.015 C 
ATOM     24  C   UNL     1       3.248   0.932   1.224  0.00  0.00    +0.084 C 
ENDBRANCH  18  19
ENDBRANCH  17  18
ENDBRANCH  16  17
ENDBRANCH   1  16
TORSDOF 7
