REMARK  Name = 
REMARK  17 active torsions:
REMARK  status: ('A' for Active; 'I' for Inactive)
REMARK    1  A    between atoms: C_1  and  N_2
REMARK    2  A    between atoms: N_2  and  C_3
REMARK    3  A    between atoms: C_3  and  C_4
REMARK    4  A    between atoms: C_4  and  O_5
REMARK    5  A    between atoms: C_4  and  C_6
REMARK    6  A    between atoms: C_8  and  O_9
REMARK    7  A    between atoms: O_9  and  C_10
REMARK    8  A    between atoms: C_10  and  C_12
REMARK    9  A    between atoms: C_12  and  C_13
REMARK   10  A    between atoms: C_12  and  C_14
REMARK   11  A    between atoms: C_12  and  C_15
REMARK   12  A    between atoms: C_16  and  O_17
REMARK   13  A    between atoms: O_17  and  C_18
REMARK   14  A    between atoms: C_18  and  C_20
REMARK   15  A    between atoms: C_20  and  C_21
REMARK   16  A    between atoms: C_20  and  C_22
REMARK   17  A    between atoms: C_20  and  C_23
REMARK                            x       y       z     vdW  Elec       q    Type
REMARK                         _______ _______ _______ _____ _____    ______ ____
ROOT
ATOM      1  C   UNL     1       2.485  -0.786   0.827  0.00  0.00    -0.014 A 
ATOM      2  C   UNL     1       1.670   0.279   0.413  0.00  0.00    +0.056 A 
ATOM      3  C   UNL     1       0.298   0.081   0.173  0.00  0.00    +0.174 A 
ATOM      4  C   UNL     1      -0.268  -1.186   0.374  0.00  0.00    +0.174 A 
ATOM      5  C   UNL     1       0.554  -2.261   0.753  0.00  0.00    +0.050 A 
ATOM      6  C   UNL     1       1.919  -2.063   0.970  0.00  0.00    +0.010 A 
ENDROOT
BRANCH   1   7
ATOM      7  C   UNL     1       3.967  -0.567   1.042  0.00  0.00    +0.158 C 
BRANCH   7   8
ATOM      8  O   UNL     1       4.418  -1.310   2.146  0.00  0.00    -0.386 OA
ATOM      9  H   UNL     1       4.069  -0.856   2.958  0.00  0.00    +0.210 HD
ENDBRANCH   7   8
BRANCH   7  10
ATOM     10  C   UNL     1       4.747  -0.986  -0.211  0.00  0.00    +0.116 C 
BRANCH  10  12
ATOM     11  C   UNL     1       6.590   0.578  -0.435  0.00  0.00    +0.101 C 
ATOM     12  N   UNL     1       6.190  -0.771  -0.023  0.00  0.00    -0.316 NA
ATOM     13  H   UNL     1       6.701  -1.444  -0.642  0.00  0.00    +0.122 HD
ENDBRANCH  10  12
ENDBRANCH   7  10
ENDBRANCH   1   7
BRANCH   3  14
ATOM     14  O   UNL     1      -0.543   1.132  -0.221  0.00  0.00    -0.422 OA
BRANCH  14  15
ATOM     15  C   UNL     1      -0.160   2.220  -1.018  0.00  0.00    +0.318 C 
ATOM     16  O   UNL     1       0.898   2.165  -1.706  0.00  0.00    -0.250 OA
BRANCH  15  17
ATOM     17  C   UNL     1      -1.070   3.430  -1.090  0.00  0.00    +0.060 C 
ATOM     18  C   UNL     1      -0.490   4.514  -2.023  0.00  0.00    +0.022 C 
ATOM     19  C   UNL     1      -1.228   4.016   0.325  0.00  0.00    +0.022 C 
ATOM     20  C   UNL     1      -2.447   2.990  -1.622  0.00  0.00    +0.022 C 
ENDBRANCH  15  17
ENDBRANCH  14  15
ENDBRANCH   3  14
BRANCH   4  21
ATOM     21  O   UNL     1      -1.641  -1.348   0.137  0.00  0.00    -0.422 OA
BRANCH  21  22
ATOM     22  C   UNL     1      -2.474  -2.271   0.784  0.00  0.00    +0.318 C 
ATOM     23  O   UNL     1      -2.103  -2.822   1.857  0.00  0.00    -0.250 OA
BRANCH  22  24
ATOM     24  C   UNL     1      -3.855  -2.534   0.214  0.00  0.00    +0.060 C 
ATOM     25  C   UNL     1      -4.615  -3.585   1.052  0.00  0.00    +0.022 C 
ATOM     26  C   UNL     1      -4.653  -1.217   0.212  0.00  0.00    +0.022 C 
ATOM     27  C   UNL     1      -3.709  -3.051  -1.229  0.00  0.00    +0.022 C 
ENDBRANCH  22  24
ENDBRANCH  21  22
ENDBRANCH   4  21
TORSDOF 10
