REMARK  Name = 
REMARK  12 active torsions:
REMARK  status: ('A' for Active; 'I' for Inactive)
REMARK    1  A    between atoms: O_1  and  C_2
REMARK    2  A    between atoms: C_2  and  C_3
REMARK    3  A    between atoms: C_3  and  N_4
REMARK    4  A    between atoms: N_4  and  C_5
REMARK    5  A    between atoms: C_5  and  C_6
REMARK    6  A    between atoms: C_6  and  O_7
REMARK    7  A    between atoms: N_22  and  C_23
REMARK    8  A    between atoms: N_22  and  C_26
REMARK    9  A    between atoms: C_23  and  C_24
REMARK   10  A    between atoms: C_24  and  O_25
REMARK   11  A    between atoms: C_26  and  C_27
REMARK   12  A    between atoms: C_27  and  O_28
REMARK                            x       y       z     vdW  Elec       q    Type
REMARK                         _______ _______ _______ _____ _____    ______ ____
ROOT
ATOM      1  N   UNL     1       3.799   0.311   0.354  0.00  0.00    -0.295 N 
ATOM      2  C   UNL     1       2.413  -0.021   0.129  0.00  0.00    +0.220 A 
ATOM      3  N   UNL     1       1.462   0.951   0.121  0.00  0.00    -0.209 NA
ATOM      4  C   UNL     1       0.150   0.648  -0.065  0.00  0.00    +0.136 A 
ATOM      5  C   UNL     1      -0.235  -0.686  -0.292  0.00  0.00    +0.136 A 
ATOM      6  N   UNL     1      -1.538  -0.977  -0.536  0.00  0.00    -0.209 NA
ATOM      7  C   UNL     1      -2.487  -0.007  -0.527  0.00  0.00    +0.220 A 
ATOM      8  N   UNL     1      -2.136   1.283  -0.292  0.00  0.00    -0.197 NA
ATOM      9  C   UNL     1      -0.845   1.643  -0.064  0.00  0.00    +0.153 A 
ATOM     10  N   UNL     1      -0.532   3.031   0.158  0.00  0.00    -0.313 N 
ATOM     11  C   UNL     1       0.307   3.441   1.294  0.00  0.00    +0.106 C 
ATOM     12  C   UNL     1      -0.361   4.605   2.033  0.00  0.00    +0.019 C 
ATOM     13  C   UNL     1      -0.657   5.806   1.109  0.00  0.00    +0.003 C 
ATOM     14  C   UNL     1      -0.660   5.450  -0.388  0.00  0.00    +0.019 C 
ATOM     15  C   UNL     1      -1.230   4.048  -0.644  0.00  0.00    +0.106 C 
ATOM     16  N   UNL     1      -3.861  -0.349  -0.753  0.00  0.00    -0.295 N 
ATOM     17  C   UNL     1       0.756  -1.683  -0.284  0.00  0.00    +0.153 A 
ATOM     18  N   UNL     1       2.047  -1.315  -0.068  0.00  0.00    -0.197 NA
ATOM     19  N   UNL     1       0.453  -3.078  -0.504  0.00  0.00    -0.313 N 
ATOM     20  C   UNL     1       1.426  -3.931  -1.198  0.00  0.00    +0.106 C 
ATOM     21  C   UNL     1       1.965  -5.008  -0.243  0.00  0.00    +0.019 C 
ATOM     22  C   UNL     1       0.880  -5.596   0.690  0.00  0.00    +0.003 C 
ATOM     23  C   UNL     1      -0.543  -5.232   0.252  0.00  0.00    +0.019 C 
ATOM     24  C   UNL     1      -0.707  -3.710   0.150  0.00  0.00    +0.106 C 
ENDROOT
BRANCH   1  25
ATOM     25  C   UNL     1       4.283   1.679   0.127  0.00  0.00    +0.136 C 
BRANCH  25  26
ATOM     26  C   UNL     1       4.449   1.933  -1.372  0.00  0.00    +0.174 C 
BRANCH  26  27
ATOM     27  O   UNL     1       4.954   3.225  -1.592  0.00  0.00    -0.393 OA
ATOM     28  H   UNL     1       5.944   3.156  -1.511  0.00  0.00    +0.209 HD
ENDBRANCH  26  27
ENDBRANCH  25  26
ENDBRANCH   1  25
BRANCH   1  29
ATOM     29  C   UNL     1       4.744  -0.738   0.763  0.00  0.00    +0.136 C 
BRANCH  29  30
ATOM     30  C   UNL     1       4.536  -1.086   2.236  0.00  0.00    +0.174 C 
BRANCH  30  31
ATOM     31  O   UNL     1       5.410  -2.118   2.614  0.00  0.00    -0.393 OA
ATOM     32  H   UNL     1       4.935  -2.975   2.432  0.00  0.00    +0.209 HD
ENDBRANCH  30  31
ENDBRANCH  29  30
ENDBRANCH   1  29
BRANCH  16  33
ATOM     33  C   UNL     1      -4.891   0.138   0.175  0.00  0.00    +0.136 C 
BRANCH  33  34
ATOM     34  C   UNL     1      -4.873  -0.691   1.463  0.00  0.00    +0.174 C 
BRANCH  34  35
ATOM     35  O   UNL     1      -5.854  -0.224   2.352  0.00  0.00    -0.393 OA
ATOM     36  H   UNL     1      -5.460   0.552   2.833  0.00  0.00    +0.209 HD
ENDBRANCH  34  35
ENDBRANCH  33  34
ENDBRANCH  16  33
BRANCH  16  37
ATOM     37  C   UNL     1      -4.236  -1.043  -1.988  0.00  0.00    +0.136 C 
BRANCH  37  38
ATOM     38  C   UNL     1      -4.585  -0.028  -3.071  0.00  0.00    +0.174 C 
BRANCH  38  39
ATOM     39  O   UNL     1      -4.820  -0.688  -4.287  0.00  0.00    -0.393 OA
ATOM     40  H   UNL     1      -3.932  -0.798  -4.726  0.00  0.00    +0.209 HD
ENDBRANCH  38  39
ENDBRANCH  37  38
ENDBRANCH  16  37
TORSDOF 12
