REMARK  Name = 
REMARK  30 active torsions:
REMARK  status: ('A' for Active; 'I' for Inactive)
REMARK    1  A    between atoms: C_1  and  C_2
REMARK    2  A    between atoms: C_2  and  C_3
REMARK    3  A    between atoms: C_7  and  C_8
REMARK    4  A    between atoms: C_9  and  O_10
REMARK    5  A    between atoms: O_10  and  C_11
REMARK    6  A    between atoms: C_13  and  C_14
REMARK    7  A    between atoms: C_13  and  O_15
REMARK    8  A    between atoms: O_15  and  C_16
REMARK    9  A    between atoms: C_17  and  O_18
REMARK   10  A    between atoms: C_19  and  C_20
REMARK   11  A    between atoms: C_22  and  C_23
REMARK   12  A    between atoms: C_24  and  O_25
REMARK   13  A    between atoms: O_25  and  C_26
REMARK   14  A    between atoms: C_28  and  C_29
REMARK   15  A    between atoms: C_31  and  N_34
REMARK   16  A    between atoms: C_32  and  O_33
REMARK   17  A    between atoms: N_34  and  C_35
REMARK   18  A    between atoms: N_34  and  C_36
REMARK   19  A    between atoms: C_37  and  C_38
REMARK   20  A    between atoms: C_37  and  O_39
REMARK   21  A    between atoms: C_41  and  C_42
REMARK   22  A    between atoms: C_45  and  C_46
REMARK   23  A    between atoms: C_46  and  O_47
REMARK   24  A    between atoms: O_47  and  C_48
REMARK   25  A    between atoms: C_48  and  C_49
REMARK   26  A    between atoms: C_49  and  O_50
REMARK   27  A    between atoms: O_50  and  C_51
REMARK   28  A    between atoms: C_54  and  C_55
REMARK   29  A    between atoms: C_56  and  C_57
REMARK   30  A    between atoms: C_56  and  O_58
REMARK                            x       y       z     vdW  Elec       q    Type
REMARK                         _______ _______ _______ _____ _____    ______ ____
ROOT
ATOM      1  C   UNL     1       2.326  -3.396  -2.746  0.00  0.00    +0.210 C 
ATOM      2  O   UNL     1       1.148  -2.965  -2.038  0.00  0.00    -0.458 OA
ATOM      3  C   UNL     1       0.157  -2.144  -2.607  0.00  0.00    +0.313 C 
ATOM      4  O   UNL     1       0.348  -1.632  -3.744  0.00  0.00    -0.250 OA
ATOM      5  C   UNL     1      -1.179  -1.960  -1.912  0.00  0.00    +0.124 C 
ATOM      6  C   UNL     1      -2.323  -1.921  -2.950  0.00  0.00    +0.022 C 
ATOM      7  C   UNL     1      -1.251  -0.795  -0.845  0.00  0.00    +0.140 C 
ATOM      8  C   UNL     1      -0.425   0.503  -1.170  0.00  0.00    +0.047 C 
ATOM      9  C   UNL     1      -0.883   1.144  -2.499  0.00  0.00    +0.013 C 
ATOM     10  C   UNL     1      -0.462   1.624  -0.058  0.00  0.00    +0.158 C 
ATOM     11  C   UNL     1       0.277   1.403   1.328  0.00  0.00    +0.090 C 
ATOM     12  C   UNL     1      -0.629   0.670   2.356  0.00  0.00    +0.044 C 
ATOM     13  C   UNL     1       1.610   0.592   1.236  0.00  0.00    +0.042 C 
ATOM     14  C   UNL     1       2.771   1.113   0.325  0.00  0.00    +0.006 C 
ATOM     15  C   UNL     1       3.492   2.305   0.980  0.00  0.00    +0.009 C 
ATOM     16  C   UNL     1       3.748  -0.095   0.040  0.00  0.00    +0.064 C 
ATOM     17  N   UNL     1       5.125   0.276  -0.344  0.00  0.00    -0.286 NA
ATOM     18  C   UNL     1       5.997  -0.903  -0.636  0.00  0.00    +0.213 C 
ATOM     19  O   UNL     1       5.382  -1.906  -1.460  0.00  0.00    -0.353 OA
ATOM     20  C   UNL     1       4.080  -2.275  -1.029  0.00  0.00    +0.160 C 
ATOM     21  C   UNL     1       3.196  -1.018  -1.066  0.00  0.00    +0.035 C 
ATOM     22  C   UNL     1       3.234  -0.308  -2.455  0.00  0.00    +0.012 C 
ATOM     23  C   UNL     1       3.550  -3.593  -1.768  0.00  0.00    +0.126 C 
ATOM     24  C   UNL     1       3.154  -4.652  -0.693  0.00  0.00    +0.048 C 
ATOM     25  H   UNL     1       5.569   0.822   0.427  0.00  0.00    +0.125 HD
ENDROOT
BRANCH   1  27
ATOM     26  C   UNL     1       1.038  -4.474  -4.707  0.00  0.00    +0.007 C 
ATOM     27  C   UNL     1       1.986  -4.698  -3.529  0.00  0.00    +0.044 C 
ENDBRANCH   1  27
BRANCH  11  28
ATOM     28  O   UNL     1       0.546   2.687   1.847  0.00  0.00    -0.386 OA
ATOM     29  H   UNL     1       1.016   2.590   2.717  0.00  0.00    +0.210 HD
ENDBRANCH  11  28
BRANCH  23  30
ATOM     30  O   UNL     1       4.616  -4.117  -2.535  0.00  0.00    -0.383 OA
ATOM     31  H   UNL     1       5.320  -4.439  -1.916  0.00  0.00    +0.210 HD
ENDBRANCH  23  30
BRANCH   7  32
ATOM     32  O   UNL     1      -2.614  -0.431  -0.629  0.00  0.00    -0.347 OA
BRANCH  32  33
ATOM     33  C   UNL     1      -3.207  -1.122   0.461  0.00  0.00    +0.254 C 
ATOM     34  C   UNL     1      -4.510  -0.392   0.867  0.00  0.00    +0.098 C 
ATOM     35  C   UNL     1      -5.411  -1.241   1.803  0.00  0.00    +0.099 C 
ATOM     36  C   UNL     1      -4.759  -1.229   3.221  0.00  0.00    +0.044 C 
ATOM     37  C   UNL     1      -5.513  -2.712   1.245  0.00  0.00    +0.175 C 
ATOM     38  C   UNL     1      -4.696  -2.901  -0.054  0.00  0.00    +0.149 C 
ATOM     39  C   UNL     1      -4.697  -4.361  -0.514  0.00  0.00    +0.041 C 
ATOM     40  O   UNL     1      -3.351  -2.506   0.153  0.00  0.00    -0.346 OA
BRANCH  35  41
ATOM     41  O   UNL     1      -6.689  -0.593   1.790  0.00  0.00    -0.374 OA
ATOM     42  C   UNL     1      -7.540  -0.955   2.865  0.00  0.00    +0.194 C 
ENDBRANCH  35  41
BRANCH  37  43
ATOM     43  O   UNL     1      -6.856  -3.058   0.987  0.00  0.00    -0.386 OA
ATOM     44  H   UNL     1      -6.997  -3.981   1.335  0.00  0.00    +0.210 HD
ENDBRANCH  37  43
ENDBRANCH  32  33
ENDBRANCH   7  32
BRANCH  10  45
ATOM     45  O   UNL     1      -1.826   1.977   0.141  0.00  0.00    -0.342 OA
BRANCH  45  46
ATOM     46  C   UNL     1      -2.054   3.365   0.307  0.00  0.00    +0.281 C 
ATOM     47  O   UNL     1      -2.072   3.650   1.696  0.00  0.00    -0.346 OA
ATOM     48  C   UNL     1      -2.256   5.037   1.924  0.00  0.00    +0.120 C 
ATOM     49  C   UNL     1      -2.078   5.311   3.417  0.00  0.00    +0.038 C 
ATOM     50  C   UNL     1      -3.660   5.467   1.461  0.00  0.00    +0.053 C 
ATOM     51  C   UNL     1      -3.826   5.142  -0.042  0.00  0.00    +0.092 C 
ATOM     52  C   UNL     1      -3.434   3.673  -0.312  0.00  0.00    +0.187 C 
BRANCH  51  53
ATOM     53  N   UNL     1      -5.178   5.446  -0.591  0.00  0.00    -0.303 NA
ATOM     54  C   UNL     1      -6.304   4.946   0.220  0.00  0.00    +0.105 C 
ATOM     55  C   UNL     1      -5.349   6.882  -0.865  0.00  0.00    +0.105 C 
ENDBRANCH  51  53
BRANCH  52  56
ATOM     56  O   UNL     1      -3.378   3.447  -1.698  0.00  0.00    -0.385 OA
ATOM     57  H   UNL     1      -4.301   3.245  -1.995  0.00  0.00    +0.210 HD
ENDBRANCH  52  56
ENDBRANCH  45  46
ENDBRANCH  10  45
BRANCH  18  58
ATOM     58  C   UNL     1       6.652  -1.534   0.629  0.00  0.00    +0.207 C 
BRANCH  58  59
ATOM     59  O   UNL     1       7.306  -0.599   1.475  0.00  0.00    -0.374 OA
BRANCH  59  60
ATOM     60  C   UNL     1       8.510  -0.082   0.926  0.00  0.00    +0.188 C 
BRANCH  60  61
ATOM     61  C   UNL     1       9.645  -1.112   0.819  0.00  0.00    +0.187 C 
BRANCH  61  62
ATOM     62  O   UNL     1       9.736  -1.889   2.005  0.00  0.00    -0.381 OA
ATOM     63  C   UNL     1      10.812  -1.444   2.802  0.00  0.00    +0.194 C 
ENDBRANCH  61  62
ENDBRANCH  60  61
ENDBRANCH  59  60
ENDBRANCH  58  59
ENDBRANCH  18  58
TORSDOF 16
