REMARK  Name = 
REMARK  12 active torsions:
REMARK  status: ('A' for Active; 'I' for Inactive)
REMARK    1  A    between atoms: C_1  and  C_2
REMARK    2  A    between atoms: C_2  and  C_3
REMARK    3  A    between atoms: C_2  and  N_4
REMARK    4  A    between atoms: N_4  and  C_5
REMARK    5  A    between atoms: N_4  and  C_23
REMARK    6  A    between atoms: C_5  and  C_6
REMARK    7  A    between atoms: C_6  and  C_7
REMARK    8  A    between atoms: C_7  and  C_8
REMARK    9  A    between atoms: C_7  and  C_11
REMARK   10  A    between atoms: C_7  and  C_17
REMARK   11  A    between atoms: C_23  and  C_24
REMARK   12  A    between atoms: C_23  and  C_25
REMARK                            x       y       z     vdW  Elec       q    Type
REMARK                         _______ _______ _______ _____ _____    ______ ____
ROOT
ATOM      1  C   UNL     1       1.302  -0.598  -0.701  0.00  0.00    +0.114 C 
ENDROOT
BRANCH   1   2
ATOM      2  C   UNL     1       1.797   0.866  -0.669  0.00  0.00    -0.027 A 
ATOM      3  C   UNL     1       2.696   1.361  -1.644  0.00  0.00    +0.005 A 
ATOM      4  C   UNL     1       3.195   2.664  -1.569  0.00  0.00    +0.000 A 
ATOM      5  C   UNL     1       2.846   3.487  -0.499  0.00  0.00    +0.000 A 
ATOM      6  C   UNL     1       2.020   2.998   0.512  0.00  0.00    +0.000 A 
ATOM      7  C   UNL     1       1.518   1.696   0.442  0.00  0.00    +0.005 A 
ENDBRANCH   1   2
BRANCH   1   8
ATOM      8  C   UNL     1       2.304  -1.402   0.147  0.00  0.00    +0.061 A 
ATOM      9  C   UNL     1       1.920  -2.397   1.076  0.00  0.00    +0.025 A 
ATOM     10  C   UNL     1       2.899  -3.109   1.772  0.00  0.00    +0.003 A 
ATOM     11  C   UNL     1       4.248  -2.851   1.540  0.00  0.00    +0.020 A 
ATOM     12  C   UNL     1       4.603  -1.882   0.604  0.00  0.00    +0.111 A 
ATOM     13  N   UNL     1       3.638  -1.197  -0.064  0.00  0.00    -0.259 NA
ENDBRANCH   1   8
BRANCH   1  14
ATOM     14  C   UNL     1       1.298  -1.185  -2.118  0.00  0.00    +0.227 C 
ATOM     15  N   UNL     1       0.811  -0.436  -3.237  0.00  0.00    -0.328 N 
ATOM     16  O   UNL     1       1.652  -2.382  -2.304  0.00  0.00    -0.275 OA
ATOM     17  H   UNL     1       0.776  -0.876  -4.183  0.00  0.00    +0.145 HD
ATOM     18  H   UNL     1       0.488   0.551  -3.138  0.00  0.00    +0.145 HD
ENDBRANCH   1  14
BRANCH   1  19
ATOM     19  C   UNL     1      -0.164  -0.729  -0.151  0.00  0.00    +0.042 C 
BRANCH  19  20
ATOM     20  C   UNL     1      -1.224   0.143  -0.870  0.00  0.00    +0.086 C 
BRANCH  20  21
ATOM     21  N   UNL     1      -2.474   0.370  -0.088  0.00  0.00    -0.297 NA
BRANCH  21  23
ATOM     22  C   UNL     1      -3.643   1.549   1.842  0.00  0.00    +0.024 C 
ATOM     23  C   UNL     1      -2.357   1.401   0.996  0.00  0.00    +0.051 C 
ATOM     24  C   UNL     1      -2.043   2.790   0.400  0.00  0.00    +0.024 C 
ENDBRANCH  21  23
BRANCH  21  25
ATOM     25  C   UNL     1      -3.306  -0.841   0.203  0.00  0.00    +0.051 C 
ATOM     26  C   UNL     1      -3.558  -1.703  -1.046  0.00  0.00    +0.024 C 
ATOM     27  C   UNL     1      -2.783  -1.705   1.371  0.00  0.00    +0.024 C 
ENDBRANCH  21  25
ENDBRANCH  20  21
ENDBRANCH  19  20
ENDBRANCH   1  19
TORSDOF 8
