REMARK  Name = 
REMARK  13 active torsions:
REMARK  status: ('A' for Active; 'I' for Inactive)
REMARK    1  A    between atoms: C_1  and  C_2
REMARK    2  A    between atoms: C_2  and  N_3
REMARK    3  A    between atoms: N_3  and  C_4
REMARK    4  A    between atoms: N_3  and  C_6
REMARK    5  A    between atoms: C_4  and  C_5
REMARK    6  A    between atoms: C_6  and  S_8
REMARK    7  A    between atoms: S_8  and  S_9
REMARK    8  A    between atoms: S_9  and  C_10
REMARK    9  A    between atoms: C_10  and  N_12
REMARK   10  A    between atoms: N_12  and  C_13
REMARK   11  A    between atoms: N_12  and  C_15
REMARK   12  A    between atoms: C_13  and  C_14
REMARK   13  A    between atoms: C_15  and  C_16
REMARK                            x       y       z     vdW  Elec       q    Type
REMARK                         _______ _______ _______ _____ _____    ______ ____
ROOT
ATOM      1  S   UNL     1      -0.292   2.151   0.825  0.00  0.00    -0.027 S 
ENDROOT
BRANCH   1   2
ATOM      2  C   UNL     1      -1.038   0.572   1.230  0.00  0.00    +0.120 C 
ATOM      3  S   UNL     1      -0.146  -0.485   2.109  0.00  0.00    -0.027 S 
BRANCH   2   4
ATOM      4  N   UNL     1      -2.409   0.279   0.873  0.00  0.00    -0.319 N 
BRANCH   4   6
ATOM      5  C   UNL     1      -3.729   2.032   1.976  0.00  0.00    +0.024 C 
ATOM      6  C   UNL     1      -3.368   1.371   0.650  0.00  0.00    +0.103 C 
ENDBRANCH   4   6
BRANCH   4   7
ATOM      7  C   UNL     1      -2.848  -1.109   0.671  0.00  0.00    +0.103 C 
ATOM      8  C   UNL     1      -2.245  -1.680  -0.609  0.00  0.00    +0.024 C 
ENDBRANCH   4   7
ENDBRANCH   2   4
ENDBRANCH   1   2
BRANCH   1   9
ATOM      9  S   UNL     1      -0.016   1.627  -1.227  0.00  0.00    -0.027 S 
BRANCH   9  10
ATOM     10  C   UNL     1       1.773   1.521  -1.098  0.00  0.00    +0.120 C 
ATOM     11  S   UNL     1       2.599   2.942  -1.105  0.00  0.00    -0.027 S 
BRANCH  10  12
ATOM     12  N   UNL     1       2.471   0.253  -1.193  0.00  0.00    -0.319 N 
BRANCH  12  13
ATOM     13  C   UNL     1       3.877   0.142  -0.765  0.00  0.00    +0.103 C 
ATOM     14  C   UNL     1       3.991   0.237   0.756  0.00  0.00    +0.024 C 
ENDBRANCH  12  13
BRANCH  12  15
ATOM     15  C   UNL     1       1.852  -0.910  -1.861  0.00  0.00    +0.103 C 
ATOM     16  C   UNL     1       1.744  -2.101  -0.912  0.00  0.00    +0.024 C 
ENDBRANCH  12  15
ENDBRANCH  10  12
ENDBRANCH   9  10
ENDBRANCH   1   9
TORSDOF 9
