REMARK  Name = 
REMARK  11 active torsions:
REMARK  status: ('A' for Active; 'I' for Inactive)
REMARK    1  A    between atoms: C_1  and  C_2
REMARK    2  A    between atoms: C_2  and  C_3
REMARK    3  A    between atoms: C_2  and  N_12
REMARK    4  A    between atoms: C_3  and  C_4
REMARK    5  A    between atoms: C_4  and  C_5
REMARK    6  A    between atoms: C_8  and  O_9
REMARK    7  A    between atoms: N_12  and  C_13
REMARK    8  A    between atoms: C_13  and  C_14
REMARK    9  A    between atoms: C_14  and  C_15
REMARK   10  A    between atoms: C_17  and  O_18
REMARK   11  A    between atoms: C_19  and  O_20
REMARK                            x       y       z     vdW  Elec       q    Type
REMARK                         _______ _______ _______ _____ _____    ______ ____
ROOT
ATOM      1  N   UNL     1      -0.389   1.374   0.375  0.00  0.00    -0.313 NA
ATOM      2  H   UNL     1      -0.656   2.381   0.265  0.00  0.00    +0.122 HD
ENDROOT
BRANCH   1   4
ATOM      3  C   UNL     1       0.505   1.899  -1.886  0.00  0.00    +0.024 C 
ATOM      4  C   UNL     1       0.498   0.901  -0.712  0.00  0.00    +0.051 C 
BRANCH   4   5
ATOM      5  C   UNL     1       1.911   0.705  -0.129  0.00  0.00    +0.023 C 
BRANCH   5   6
ATOM      6  C   UNL     1       2.865  -0.014  -1.095  0.00  0.00    +0.036 C 
BRANCH   6   7
ATOM      7  C   UNL     1       4.177  -0.307  -0.417  0.00  0.00    -0.047 A 
ATOM      8  C   UNL     1       4.364  -1.516   0.273  0.00  0.00    +0.007 A 
ATOM      9  C   UNL     1       5.572  -1.772   0.930  0.00  0.00    +0.045 A 
ATOM     10  C   UNL     1       6.599  -0.820   0.913  0.00  0.00    +0.117 A 
ATOM     11  C   UNL     1       6.412   0.391   0.238  0.00  0.00    +0.045 A 
ATOM     12  C   UNL     1       5.205   0.650  -0.420  0.00  0.00    +0.007 A 
BRANCH  10  13
ATOM     13  O   UNL     1       7.806  -1.065   1.564  0.00  0.00    -0.507 OA
ATOM     14  H   UNL     1       7.973  -1.931   2.062  0.00  0.00    +0.292 HD
ENDBRANCH  10  13
ENDBRANCH   6   7
ENDBRANCH   5   6
ENDBRANCH   4   5
ENDBRANCH   1   4
BRANCH   1  15
ATOM     15  C   UNL     1      -1.593   0.550   0.555  0.00  0.00    +0.086 C 
BRANCH  15  16
ATOM     16  C   UNL     1      -2.615   0.762  -0.573  0.00  0.00    +0.050 C 
BRANCH  16  17
ATOM     17  C   UNL     1      -3.872  -0.020  -0.299  0.00  0.00    -0.042 A 
ATOM     18  C   UNL     1      -4.923   0.560   0.430  0.00  0.00    +0.052 A 
ATOM     19  C   UNL     1      -6.082  -0.177   0.715  0.00  0.00    +0.158 A 
ATOM     20  C   UNL     1      -6.187  -1.508   0.276  0.00  0.00    +0.158 A 
ATOM     21  C   UNL     1      -5.134  -2.090  -0.438  0.00  0.00    +0.049 A 
ATOM     22  C   UNL     1      -3.981  -1.354  -0.721  0.00  0.00    +0.007 A 
BRANCH  19  23
ATOM     23  O   UNL     1      -7.124   0.407   1.432  0.00  0.00    -0.503 OA
ATOM     24  H   UNL     1      -7.072   1.364   1.760  0.00  0.00    +0.292 HD
ENDBRANCH  19  23
BRANCH  20  25
ATOM     25  O   UNL     1      -7.327  -2.267   0.542  0.00  0.00    -0.503 OA
ATOM     26  H   UNL     1      -8.115  -1.892   1.055  0.00  0.00    +0.292 HD
ENDBRANCH  20  25
ENDBRANCH  16  17
ENDBRANCH  15  16
ENDBRANCH   1  15
TORSDOF 10
