REMARK  Name = 
REMARK  25 active torsions:
REMARK  status: ('A' for Active; 'I' for Inactive)
REMARK    1  A    between atoms: C_3  and  O_4
REMARK    2  A    between atoms: C_5  and  C_6
REMARK    3  A    between atoms: C_9  and  O_10
REMARK    4  A    between atoms: C_12  and  C_13
REMARK    5  A    between atoms: C_14  and  O_39
REMARK    6  A    between atoms: C_16  and  O_17
REMARK    7  A    between atoms: C_18  and  O_19
REMARK    8  A    between atoms: O_19  and  C_20
REMARK    9  A    between atoms: C_20  and  C_22
REMARK   10  A    between atoms: C_29  and  O_32
REMARK   11  A    between atoms: O_32  and  C_33
REMARK   12  A    between atoms: C_33  and  C_34
REMARK   13  A    between atoms: C_36  and  C_37
REMARK   14  A    between atoms: C_36  and  C_38
REMARK   15  A    between atoms: O_39  and  C_40
REMARK   16  A    between atoms: C_40  and  C_42
REMARK   17  A    between atoms: C_42  and  O_43
REMARK   18  A    between atoms: C_42  and  C_44
REMARK   19  A    between atoms: C_44  and  N_45
REMARK   20  A    between atoms: C_44  and  C_53
REMARK   21  A    between atoms: C_46  and  O_48
REMARK   22  A    between atoms: O_48  and  C_49
REMARK   23  A    between atoms: C_49  and  C_50
REMARK   24  A    between atoms: C_49  and  C_51
REMARK   25  A    between atoms: C_49  and  C_52
REMARK                            x       y       z     vdW  Elec       q    Type
REMARK                         _______ _______ _______ _____ _____    ______ ____
ROOT
ATOM      1  C   UNL     1      -5.935   1.755  -2.695  0.00  0.00    +0.167 C 
ATOM      2  C   UNL     1      -5.551   3.245  -2.624  0.00  0.00    +0.068 C 
ATOM      3  C   UNL     1      -4.458   3.617  -1.603  0.00  0.00    +0.131 C 
ATOM      4  C   UNL     1      -3.195   2.662  -1.616  0.00  0.00    +0.065 C 
ATOM      5  C   UNL     1      -2.641   2.775  -3.085  0.00  0.00    +0.022 C 
ATOM      6  C   UNL     1      -2.127   3.325  -0.619  0.00  0.00    +0.174 C 
ATOM      7  O   UNL     1      -2.553   4.151   0.182  0.00  0.00    -0.294 OA
ATOM      8  C   UNL     1      -0.576   3.116  -0.515  0.00  0.00    +0.208 C 
ATOM      9  C   UNL     1      -0.072   1.818   0.202  0.00  0.00    -0.023 C 
ATOM     10  C   UNL     1       1.047   1.159  -0.291  0.00  0.00    -0.030 C 
ATOM     11  C   UNL     1       2.274   1.929  -0.709  0.00  0.00    +0.043 C 
ATOM     12  C   UNL     1       0.983  -0.357  -0.728  0.00  0.00    +0.205 C 
ATOM     13  C   UNL     1      -0.455  -1.054  -0.645  0.00  0.00    +0.088 C 
ATOM     14  C   UNL     1      -1.503   0.086  -0.566  0.00  0.00    +0.116 C 
ATOM     15  C   UNL     1      -3.011  -0.131  -0.731  0.00  0.00    +0.217 C 
ATOM     16  C   UNL     1      -3.832   1.200  -1.157  0.00  0.00    +0.097 C 
ATOM     17  C   UNL     1      -5.082   0.723  -1.968  0.00  0.00    +0.170 C 
ATOM     18  C   UNL     1      -4.803   0.211  -3.369  0.00  0.00    +0.211 C 
ATOM     19  O   UNL     1      -5.614   1.205  -3.959  0.00  0.00    -0.368 OA
ATOM     20  C   UNL     1      -1.113   0.891   0.780  0.00  0.00    +0.022 C 
ATOM     21  C   UNL     1      -2.223   1.595   1.647  0.00  0.00    +0.018 C 
ATOM     22  C   UNL     1      -0.454   0.030   1.940  0.00  0.00    +0.018 C 
ENDROOT
BRANCH   3  23
ATOM     23  O   UNL     1      -4.077   4.952  -1.843  0.00  0.00    -0.391 OA
ATOM     24  H   UNL     1      -4.798   5.534  -1.480  0.00  0.00    +0.210 HD
ENDBRANCH   3  23
BRANCH   8  25
ATOM     25  O   UNL     1      -0.008   3.247  -1.792  0.00  0.00    -0.380 OA
ATOM     26  H   UNL     1      -0.089   4.203  -2.051  0.00  0.00    +0.211 HD
ENDBRANCH   8  25
BRANCH  14  27
ATOM     27  O   UNL     1      -1.207   0.774  -1.764  0.00  0.00    -0.384 OA
ATOM     28  H   UNL     1      -1.351   0.180  -2.553  0.00  0.00    +0.210 HD
ENDBRANCH  14  27
BRANCH  15  29
ATOM     29  O   UNL     1      -3.588  -0.702   0.445  0.00  0.00    -0.454 OA
BRANCH  29  30
ATOM     30  C   UNL     1      -3.648  -2.076   0.707  0.00  0.00    +0.340 C 
ATOM     31  O   UNL     1      -3.018  -2.891  -0.020  0.00  0.00    -0.245 OA
BRANCH  30  32
ATOM     32  C   UNL     1      -4.473  -2.564   1.831  0.00  0.00    +0.059 A 
ATOM     33  C   UNL     1      -4.680  -3.942   2.027  0.00  0.00    +0.015 A 
ATOM     34  C   UNL     1      -5.489  -4.394   3.074  0.00  0.00    +0.001 A 
ATOM     35  C   UNL     1      -6.098  -3.478   3.934  0.00  0.00    +0.000 A 
ATOM     36  C   UNL     1      -5.901  -2.107   3.747  0.00  0.00    +0.001 A 
ATOM     37  C   UNL     1      -5.090  -1.650   2.703  0.00  0.00    +0.015 A 
ENDBRANCH  30  32
ENDBRANCH  29  30
ENDBRANCH  15  29
BRANCH  17  38
ATOM     38  O   UNL     1      -5.863  -0.192  -1.169  0.00  0.00    -0.453 OA
BRANCH  38  39
ATOM     39  C   UNL     1      -7.013  -0.915  -1.531  0.00  0.00    +0.305 C 
ATOM     40  C   UNL     1      -7.614  -1.854  -0.538  0.00  0.00    +0.136 C 
ATOM     41  O   UNL     1      -7.523  -0.817  -2.680  0.00  0.00    -0.251 OA
ENDBRANCH  38  39
ENDBRANCH  17  38
BRANCH  12  42
ATOM     42  O   UNL     1       1.960  -1.101  -0.001  0.00  0.00    -0.455 OA
BRANCH  42  43
ATOM     43  C   UNL     1       2.430  -2.358  -0.391  0.00  0.00    +0.339 C 
ATOM     44  O   UNL     1       1.992  -2.917  -1.434  0.00  0.00    -0.248 OA
BRANCH  43  45
ATOM     45  C   UNL     1       3.528  -3.011   0.399  0.00  0.00    +0.247 C 
BRANCH  45  46
ATOM     46  O   UNL     1       3.280  -2.855   1.772  0.00  0.00    -0.379 OA
ATOM     47  H   UNL     1       2.574  -3.509   2.016  0.00  0.00    +0.211 HD
ENDBRANCH  45  46
BRANCH  45  48
ATOM     48  C   UNL     1       4.896  -2.397   0.025  0.00  0.00    +0.146 C 
BRANCH  48  49
ATOM     49  C   UNL     1       6.029  -3.175   0.666  0.00  0.00    -0.024 A 
ATOM     50  C   UNL     1       6.684  -4.185  -0.060  0.00  0.00    +0.005 A 
ATOM     51  C   UNL     1       7.731  -4.907   0.520  0.00  0.00    +0.000 A 
ATOM     52  C   UNL     1       8.128  -4.635   1.831  0.00  0.00    +0.000 A 
ATOM     53  C   UNL     1       7.475  -3.643   2.568  0.00  0.00    +0.000 A 
ATOM     54  C   UNL     1       6.426  -2.920   1.993  0.00  0.00    +0.005 A 
ENDBRANCH  48  49
BRANCH  48  55
ATOM     55  N   UNL     1       4.973  -0.977   0.396  0.00  0.00    -0.271 N 
ATOM     56  C   UNL     1       5.990  -0.109  -0.117  0.00  0.00    +0.401 C 
ATOM     57  O   UNL     1       6.857  -0.555  -0.917  0.00  0.00    -0.226 OA
ATOM     58  H   UNL     1       4.301  -0.576   1.089  0.00  0.00    +0.153 HD
BRANCH  56  59
ATOM     59  O   UNL     1       5.995   1.237   0.282  0.00  0.00    -0.445 OA
BRANCH  59  60
ATOM     60  C   UNL     1       6.940   2.239  -0.126  0.00  0.00    +0.107 C 
ATOM     61  C   UNL     1       8.361   1.859   0.333  0.00  0.00    +0.055 C 
ATOM     62  C   UNL     1       6.529   3.551   0.558  0.00  0.00    +0.055 C 
ATOM     63  C   UNL     1       6.898   2.438  -1.653  0.00  0.00    +0.055 C 
ENDBRANCH  59  60
ENDBRANCH  56  59
ENDBRANCH  48  55
ENDBRANCH  45  48
ENDBRANCH  43  45
ENDBRANCH  42  43
ENDBRANCH  12  42
TORSDOF 17
