REMARK  Name = 
REMARK  22 active torsions:
REMARK  status: ('A' for Active; 'I' for Inactive)
REMARK    1  A    between atoms: C_1  and  C_2
REMARK    2  A    between atoms: C_2  and  C_3
REMARK    3  A    between atoms: C_3  and  C_4
REMARK    4  A    between atoms: C_4  and  C_5
REMARK    5  A    between atoms: C_5  and  C_6
REMARK    6  A    between atoms: C_6  and  C_7
REMARK    7  A    between atoms: C_7  and  C_8
REMARK    8  A    between atoms: C_8  and  C_9
REMARK    9  A    between atoms: C_9  and  C_10
REMARK   10  A    between atoms: C_10  and  C_11
REMARK   11  A    between atoms: C_11  and  C_12
REMARK   12  A    between atoms: C_12  and  C_13
REMARK   13  A    between atoms: C_13  and  C_14
REMARK   14  A    between atoms: C_14  and  C_15
REMARK   15  A    between atoms: C_15  and  C_16
REMARK   16  A    between atoms: C_16  and  C_17
REMARK   17  A    between atoms: C_17  and  C_18
REMARK   18  A    between atoms: C_18  and  C_19
REMARK   19  A    between atoms: C_19  and  C_20
REMARK   20  A    between atoms: C_20  and  C_21
REMARK   21  A    between atoms: C_21  and  C_22
REMARK   22  A    between atoms: C_22  and  O_23
REMARK                            x       y       z     vdW  Elec       q    Type
REMARK                         _______ _______ _______ _____ _____    ______ ____
ROOT
ATOM      1  C   UNL     1       0.164  -0.921   1.476  0.00  0.00    -0.000 C 
ENDROOT
BRANCH   1   2
ATOM      2  C   UNL     1      -0.916  -0.083   0.774  0.00  0.00    -0.000 C 
BRANCH   2   3
ATOM      3  C   UNL     1      -1.732   0.775   1.756  0.00  0.00    -0.000 C 
BRANCH   3   4
ATOM      4  C   UNL     1      -2.865   1.555   1.054  0.00  0.00    -0.000 C 
BRANCH   4   5
ATOM      5  C   UNL     1      -4.263   0.943   1.265  0.00  0.00    -0.000 C 
BRANCH   5   6
ATOM      6  C   UNL     1      -4.489  -0.413   0.570  0.00  0.00    -0.000 C 
BRANCH   6   7
ATOM      7  C   UNL     1      -4.379  -0.383  -0.968  0.00  0.00    -0.000 C 
BRANCH   7   8
ATOM      8  C   UNL     1      -5.329   0.604  -1.675  0.00  0.00    -0.000 C 
BRANCH   8   9
ATOM      9  C   UNL     1      -6.824   0.391  -1.376  0.00  0.00    -0.000 C 
BRANCH   9  10
ATOM     10  C   UNL     1      -7.332  -0.988  -1.831  0.00  0.00    -0.000 C 
BRANCH  10  12
ATOM     11  C   UNL     1      -9.394  -1.127  -0.335  0.00  0.00    +0.004 C 
ATOM     12  C   UNL     1      -8.863  -1.102  -1.769  0.00  0.00    -0.003 C 
ENDBRANCH  10  12
ENDBRANCH   9  10
ENDBRANCH   8   9
ENDBRANCH   7   8
ENDBRANCH   6   7
ENDBRANCH   5   6
ENDBRANCH   4   5
ENDBRANCH   3   4
ENDBRANCH   2   3
ENDBRANCH   1   2
BRANCH   1  13
ATOM     13  C   UNL     1       1.341  -0.070   1.977  0.00  0.00    -0.000 C 
BRANCH  13  14
ATOM     14  C   UNL     1       2.477  -0.961   2.503  0.00  0.00    -0.000 C 
BRANCH  14  15
ATOM     15  C   UNL     1       3.611  -0.162   3.171  0.00  0.00    -0.000 C 
BRANCH  15  16
ATOM     16  C   UNL     1       4.307   0.868   2.260  0.00  0.00    -0.000 C 
BRANCH  16  17
ATOM     17  C   UNL     1       4.952   0.235   1.018  0.00  0.00    +0.000 C 
BRANCH  17  18
ATOM     18  C   UNL     1       5.774   1.273   0.240  0.00  0.00    +0.000 C 
BRANCH  18  19
ATOM     19  C   UNL     1       6.300   0.732  -1.100  0.00  0.00    +0.000 C 
BRANCH  19  20
ATOM     20  C   UNL     1       7.480  -0.238  -0.922  0.00  0.00    +0.002 C 
BRANCH  20  21
ATOM     21  C   UNL     1       7.963  -0.831  -2.258  0.00  0.00    +0.028 C 
BRANCH  21  22
ATOM     22  C   UNL     1       8.687   0.183  -3.156  0.00  0.00    +0.156 C 
BRANCH  22  23
ATOM     23  O   UNL     1       9.811   0.716  -2.509  0.00  0.00    -0.395 OA
ATOM     24  H   UNL     1      10.513   0.016  -2.537  0.00  0.00    +0.209 HD
ENDBRANCH  22  23
ENDBRANCH  21  22
ENDBRANCH  20  21
ENDBRANCH  19  20
ENDBRANCH  18  19
ENDBRANCH  17  18
ENDBRANCH  16  17
ENDBRANCH  15  16
ENDBRANCH  14  15
ENDBRANCH  13  14
ENDBRANCH   1  13
TORSDOF 21
