REMARK  Name = 
REMARK  14 active torsions:
REMARK  status: ('A' for Active; 'I' for Inactive)
REMARK    1  A    between atoms: C_1  and  N_2
REMARK    2  A    between atoms: N_2  and  C_3
REMARK    3  A    between atoms: N_2  and  C_17
REMARK    4  A    between atoms: C_3  and  C_4
REMARK    5  A    between atoms: C_4  and  O_5
REMARK    6  A    between atoms: O_5  and  C_6
REMARK    7  A    between atoms: C_9  and  N_10
REMARK    8  A    between atoms: N_10  and  S_11
REMARK    9  A    between atoms: S_11  and  C_12
REMARK   10  A    between atoms: C_17  and  C_18
REMARK   11  A    between atoms: C_18  and  C_19
REMARK   12  A    between atoms: C_22  and  N_23
REMARK   13  A    between atoms: N_23  and  S_24
REMARK   14  A    between atoms: S_24  and  C_25
REMARK                            x       y       z     vdW  Elec       q    Type
REMARK                         _______ _______ _______ _____ _____    ______ ____
ROOT
ATOM      1  C   UNL     1      -0.392   3.347   1.058  0.00  0.00    +0.105 C 
ATOM      2  N   UNL     1      -0.529   2.209   0.129  0.00  0.00    -0.302 NA
ENDROOT
BRANCH   2   3
ATOM      3  C   UNL     1       0.337   1.071   0.507  0.00  0.00    +0.125 C 
BRANCH   3   4
ATOM      4  C   UNL     1       1.761   1.290  -0.002  0.00  0.00    +0.244 C 
BRANCH   4   5
ATOM      5  O   UNL     1       2.535   0.117   0.235  0.00  0.00    -0.491 OA
BRANCH   5   6
ATOM      6  C   UNL     1       3.886  -0.025  -0.116  0.00  0.00    +0.121 A 
ATOM      7  C   UNL     1       4.615   1.001  -0.743  0.00  0.00    +0.047 A 
ATOM      8  C   UNL     1       5.959   0.809  -1.075  0.00  0.00    +0.028 A 
ATOM      9  C   UNL     1       6.602  -0.406  -0.788  0.00  0.00    +0.048 A 
ATOM     10  C   UNL     1       5.868  -1.430  -0.161  0.00  0.00    +0.028 A 
ATOM     11  C   UNL     1       4.524  -1.236   0.170  0.00  0.00    +0.047 A 
BRANCH   9  12
ATOM     12  N   UNL     1       7.988  -0.563  -1.147  0.00  0.00    -0.221 N 
ATOM     13  H   UNL     1       8.479   0.232  -1.615  0.00  0.00    +0.173 HD
BRANCH  12  14
ATOM     14  S   UNL     1       8.942  -1.976  -0.818  0.00  0.00    +0.040 S 
ATOM     15  C   UNL     1       9.232  -2.126   0.932  0.00  0.00    +0.218 C 
ATOM     16  O   UNL     1      10.266  -1.839  -1.514  0.00  0.00    -0.155 OA
ATOM     17  O   UNL     1       8.248  -3.201  -1.343  0.00  0.00    -0.155 OA
ENDBRANCH  12  14
ENDBRANCH   9  12
ENDBRANCH   5   6
ENDBRANCH   4   5
ENDBRANCH   3   4
ENDBRANCH   2   3
BRANCH   2  18
ATOM     18  C   UNL     1      -1.942   1.812  -0.066  0.00  0.00    +0.089 C 
BRANCH  18  19
ATOM     19  C   UNL     1      -2.630   1.297   1.215  0.00  0.00    +0.050 C 
BRANCH  19  20
ATOM     20  C   UNL     1      -4.018   0.806   0.902  0.00  0.00    -0.046 A 
ATOM     21  C   UNL     1      -5.098   1.701   0.877  0.00  0.00    +0.005 A 
ATOM     22  C   UNL     1      -6.381   1.250   0.554  0.00  0.00    +0.025 A 
ATOM     23  C   UNL     1      -6.609  -0.100   0.243  0.00  0.00    +0.048 A 
ATOM     24  C   UNL     1      -5.520  -0.992   0.256  0.00  0.00    +0.025 A 
ATOM     25  C   UNL     1      -4.237  -0.541   0.577  0.00  0.00    +0.005 A 
BRANCH  23  26
ATOM     26  N   UNL     1      -7.946  -0.524  -0.084  0.00  0.00    -0.221 N 
ATOM     27  H   UNL     1      -8.711   0.188  -0.097  0.00  0.00    +0.173 HD
BRANCH  26  28
ATOM     28  S   UNL     1      -8.397  -2.155  -0.472  0.00  0.00    +0.040 S 
ATOM     29  C   UNL     1      -7.764  -2.602  -2.075  0.00  0.00    +0.218 C 
ATOM     30  O   UNL     1      -7.882  -3.097   0.580  0.00  0.00    -0.155 OA
ATOM     31  O   UNL     1      -9.896  -2.248  -0.506  0.00  0.00    -0.155 OA
ENDBRANCH  26  28
ENDBRANCH  23  26
ENDBRANCH  19  20
ENDBRANCH  18  19
ENDBRANCH   2  18
TORSDOF 11
