REMARK  Name = 
REMARK  3 active torsions:
REMARK  status: ('A' for Active; 'I' for Inactive)
REMARK    1  A    between atoms: C_3  and  O_13
REMARK    2  A    between atoms: O_13  and  C_14
REMARK    3  A    between atoms: C_14  and  C_16
REMARK                            x       y       z     vdW  Elec       q    Type
REMARK                         _______ _______ _______ _____ _____    ______ ____
ROOT
ATOM      1  O   UNL     1       0.636  -0.776  -0.081  0.00  0.00    -0.458 OA
ENDROOT
BRANCH   1   4
ATOM      2  C   UNL     1      -2.953  -1.121  -0.604  0.00  0.00    +0.062 C 
ATOM      3  C   UNL     1      -1.616  -1.754  -0.229  0.00  0.00    +0.063 C 
ATOM      4  C   UNL     1      -0.701  -0.604   0.389  0.00  0.00    +0.180 C 
ATOM      5  C   UNL     1      -1.196   0.894   0.097  0.00  0.00    +0.063 C 
ATOM      6  C   UNL     1      -2.771   1.080   0.140  0.00  0.00    +0.062 C 
ATOM      7  C   UNL     1      -3.463   1.499  -1.242  0.00  0.00    +0.030 C 
ATOM      8  C   UNL     1      -4.574   0.434  -1.649  0.00  0.00    +0.059 C 
ATOM      9  C   UNL     1      -3.981  -1.025  -1.766  0.00  0.00    +0.030 C 
ATOM     10  C   UNL     1      -5.474   0.352  -0.462  0.00  0.00    +0.150 C 
ATOM     11  O   UNL     1      -6.660   0.638  -0.502  0.00  0.00    -0.296 OA
ATOM     12  C   UNL     1      -4.792  -0.132   0.783  0.00  0.00    +0.159 C 
ATOM     13  N   UNL     1      -3.329  -0.220   0.530  0.00  0.00    -0.289 NA
ENDBRANCH   1   4
BRANCH   1  14
ATOM     14  C   UNL     1       1.752  -0.183   0.520  0.00  0.00    +0.341 C 
ATOM     15  O   UNL     1       1.623   0.503   1.570  0.00  0.00    -0.245 OA
BRANCH  14  16
ATOM     16  C   UNL     1       3.080  -0.375  -0.085  0.00  0.00    +0.084 A 
ATOM     17  C   UNL     1       3.347  -1.112  -1.236  0.00  0.00    +0.098 A 
ATOM     18  N   UNL     1       4.668  -1.086  -1.520  0.00  0.00    -0.360 N 
ATOM     19  C   UNL     1       5.240  -0.339  -0.562  0.00  0.00    +0.047 A 
ATOM     20  C   UNL     1       6.593  -0.028  -0.436  0.00  0.00    +0.026 A 
ATOM     21  C   UNL     1       6.986   0.776   0.649  0.00  0.00    +0.002 A 
ATOM     22  C   UNL     1       6.028   1.246   1.574  0.00  0.00    +0.001 A 
ATOM     23  C   UNL     1       4.669   0.916   1.423  0.00  0.00    +0.011 A 
ATOM     24  C   UNL     1       4.306   0.116   0.336  0.00  0.00    +0.014 A 
ATOM     25  H   UNL     1       5.143  -1.553  -2.325  0.00  0.00    +0.165 HD
ENDBRANCH  14  16
ENDBRANCH   1  14
TORSDOF 3
