REMARK  Name = 
REMARK  5 active torsions:
REMARK  status: ('A' for Active; 'I' for Inactive)
REMARK    1  A    between atoms: N_8  and  C_9
REMARK    2  A    between atoms: N_12  and  C_13
REMARK    3  A    between atoms: C_13  and  C_14
REMARK    4  A    between atoms: C_14  and  C_15
REMARK    5  A    between atoms: C_15  and  N_16
REMARK                            x       y       z     vdW  Elec       q    Type
REMARK                         _______ _______ _______ _____ _____    ______ ____
ROOT
ATOM      1  C   UNL     1       2.430  -0.333  -0.720  0.00  0.00    +0.095 C 
ATOM      2  C   UNL     1       1.723  -1.694  -0.656  0.00  0.00    +0.040 C 
ATOM      3  C   UNL     1       0.216  -1.530  -0.362  0.00  0.00    +0.086 C 
ATOM      4  N   UNL     1      -0.364  -0.260  -0.874  0.00  0.00    -0.302 NA
ATOM      5  C   UNL     1       0.329   0.243  -2.078  0.00  0.00    +0.086 C 
ATOM      6  C   UNL     1       1.813   0.570  -1.810  0.00  0.00    +0.040 C 
ENDROOT
BRANCH   1  14
ATOM      7 CL   UNL     1       8.798   1.097   1.846  0.00  0.00    -0.083 Cl
ATOM      8  C   UNL     1       7.289   0.652   1.070  0.00  0.00    +0.043 A 
ATOM      9  C   UNL     1       7.310  -0.071  -0.137  0.00  0.00    +0.047 A 
ATOM     10  C   UNL     1       6.087  -0.401  -0.715  0.00  0.00    +0.068 A 
ATOM     11  C   UNL     1       4.891  -0.047  -0.148  0.00  0.00    +0.070 A 
ATOM     12  C   UNL     1       4.839   0.674   1.050  0.00  0.00    +0.029 A 
ATOM     13  C   UNL     1       6.059   1.023   1.659  0.00  0.00    +0.022 A 
ATOM     14  N   UNL     1       3.880  -0.496  -0.926  0.00  0.00    -0.289 N 
ATOM     15  C   UNL     1       4.522  -1.110  -1.959  0.00  0.00    +0.328 A 
ATOM     16  O   UNL     1       3.928  -1.655  -2.928  0.00  0.00    -0.247 OA
ATOM     17  N   UNL     1       5.870  -1.073  -1.857  0.00  0.00    -0.306 N 
ATOM     18  H   UNL     1       6.577  -1.467  -2.517  0.00  0.00    +0.170 HD
ENDBRANCH   1  14
BRANCH   4  19
ATOM     19  C   UNL     1      -0.547   0.779   0.169  0.00  0.00    +0.086 C 
BRANCH  19  20
ATOM     20  C   UNL     1      -2.031   0.920   0.522  0.00  0.00    +0.037 C 
BRANCH  20  21
ATOM     21  C   UNL     1      -2.585  -0.326   1.220  0.00  0.00    +0.128 C 
BRANCH  21  22
ATOM     22  N   UNL     1      -3.986  -0.114   1.587  0.00  0.00    -0.292 N 
ATOM     23  C   UNL     1      -4.474   0.365   2.759  0.00  0.00    +0.328 A 
ATOM     24  O   UNL     1      -3.750   0.652   3.750  0.00  0.00    -0.247 OA
ATOM     25  N   UNL     1      -5.820   0.518   2.759  0.00  0.00    -0.306 N 
ATOM     26  C   UNL     1      -6.185   0.130   1.525  0.00  0.00    +0.067 A 
ATOM     27  C   UNL     1      -7.464   0.109   0.973  0.00  0.00    +0.028 A 
ATOM     28  C   UNL     1      -7.591  -0.318  -0.362  0.00  0.00    +0.002 A 
ATOM     29  C   UNL     1      -6.451  -0.703  -1.104  0.00  0.00    +0.002 A 
ATOM     30  C   UNL     1      -5.171  -0.668  -0.518  0.00  0.00    +0.028 A 
ATOM     31  C   UNL     1      -5.080  -0.247   0.810  0.00  0.00    +0.070 A 
ATOM     32  H   UNL     1      -6.428   0.872   3.531  0.00  0.00    +0.170 HD
ENDBRANCH  21  22
ENDBRANCH  20  21
ENDBRANCH  19  20
ENDBRANCH   4  19
TORSDOF 5
