REMARK  Name = 
REMARK  8 active torsions:
REMARK  status: ('A' for Active; 'I' for Inactive)
REMARK    1  A    between atoms: C_1  and  O_2
REMARK    2  A    between atoms: O_2  and  C_3
REMARK    3  A    between atoms: C_4  and  O_5
REMARK    4  A    between atoms: O_5  and  C_6
REMARK    5  A    between atoms: C_11  and  C_12
REMARK    6  A    between atoms: C_12  and  C_13
REMARK    7  A    between atoms: N_16  and  C_17
REMARK    8  A    between atoms: C_17  and  C_18
REMARK                            x       y       z     vdW  Elec       q    Type
REMARK                         _______ _______ _______ _____ _____    ______ ____
ROOT
ATOM      1  C   UNL     1      -5.207   0.019   0.217  0.00  0.00    +0.162 A 
ATOM      2  C   UNL     1      -4.741   1.034   1.084  0.00  0.00    +0.162 A 
ATOM      3  C   UNL     1      -3.569   1.754   0.758  0.00  0.00    +0.061 A 
ATOM      4  C   UNL     1      -2.900   1.439  -0.422  0.00  0.00    +0.025 A 
ATOM      5  C   UNL     1      -1.698   2.020  -0.966  0.00  0.00    +0.167 C 
ATOM      6  O   UNL     1      -1.085   3.002  -0.469  0.00  0.00    -0.292 OA
ATOM      7  C   UNL     1      -1.319   1.330  -2.240  0.00  0.00    +0.065 C 
ATOM      8  C   UNL     1      -2.471   0.309  -2.474  0.00  0.00    +0.047 C 
ATOM      9  C   UNL     1      -3.345   0.457  -1.267  0.00  0.00    -0.033 A 
ATOM     10  C   UNL     1      -4.499  -0.269  -0.974  0.00  0.00    +0.053 A 
ENDROOT
BRANCH   1  12
ATOM     11  C   UNL     1      -6.969  -1.705  -0.213  0.00  0.00    +0.277 C 
ATOM     12  O   UNL     1      -6.374  -0.676   0.572  0.00  0.00    -0.491 OA
ENDBRANCH   1  12
BRANCH   2  13
ATOM     13  O   UNL     1      -5.471   1.297   2.254  0.00  0.00    -0.491 OA
ATOM     14  C   UNL     1      -5.128   2.295   3.211  0.00  0.00    +0.277 C 
ENDBRANCH   2  13
BRANCH   7  15
ATOM     15  C   UNL     1       0.078   0.671  -2.175  0.00  0.00    +0.015 C 
BRANCH  15  16
ATOM     16  C   UNL     1       0.272  -0.347  -1.004  0.00  0.00    -0.008 C 
ATOM     17  C   UNL     1       1.038   0.258   0.193  0.00  0.00    +0.019 C 
ATOM     18  C   UNL     1       2.543   0.391  -0.087  0.00  0.00    +0.085 C 
ATOM     19  N   UNL     1       3.119  -0.913  -0.482  0.00  0.00    -0.298 NA
ATOM     20  C   UNL     1       2.473  -1.399  -1.717  0.00  0.00    +0.085 C 
ATOM     21  C   UNL     1       0.979  -1.635  -1.473  0.00  0.00    +0.019 C 
BRANCH  19  22
ATOM     22  C   UNL     1       4.579  -0.799  -0.684  0.00  0.00    +0.119 C 
BRANCH  22  23
ATOM     23  C   UNL     1       5.290  -0.717   0.642  0.00  0.00    -0.033 A 
ATOM     24  C   UNL     1       5.287  -1.821   1.509  0.00  0.00    +0.005 A 
ATOM     25  C   UNL     1       5.928  -1.744   2.750  0.00  0.00    +0.000 A 
ATOM     26  C   UNL     1       6.573  -0.564   3.133  0.00  0.00    +0.000 A 
ATOM     27  C   UNL     1       6.579   0.539   2.276  0.00  0.00    +0.000 A 
ATOM     28  C   UNL     1       5.939   0.467   1.035  0.00  0.00    +0.005 A 
ENDBRANCH  22  23
ENDBRANCH  19  22
ENDBRANCH  15  16
ENDBRANCH   7  15
TORSDOF 6
