REMARK  Name = 
REMARK  5 active torsions:
REMARK  status: ('A' for Active; 'I' for Inactive)
REMARK    1  A    between atoms: N_1  and  C_2
REMARK    2  A    between atoms: C_2  and  C_3
REMARK    3  A    between atoms: C_3  and  C_4
REMARK    4  A    between atoms: C_6  and  O_7
REMARK    5  A    between atoms: C_8  and  O_9
REMARK                            x       y       z     vdW  Elec       q    Type
REMARK                         _______ _______ _______ _____ _____    ______ ____
ROOT
ATOM      1  C   UNL     1       0.084  -0.452   0.023  0.00  0.00    -0.042 A 
ATOM      2  C   UNL     1      -0.683   0.110  -1.010  0.00  0.00    +0.052 A 
ATOM      3  C   UNL     1      -2.033   0.426  -0.802  0.00  0.00    +0.158 A 
ATOM      4  C   UNL     1      -2.620   0.189   0.453  0.00  0.00    +0.158 A 
ATOM      5  C   UNL     1      -1.852  -0.358   1.486  0.00  0.00    +0.049 A 
ATOM      6  C   UNL     1      -0.507  -0.672   1.277  0.00  0.00    +0.007 A 
ENDROOT
BRANCH   3   7
ATOM      7  O   UNL     1      -2.791   0.977  -1.835  0.00  0.00    -0.503 OA
ATOM      8  H   UNL     1      -2.391   1.158  -2.748  0.00  0.00    +0.292 HD
ENDBRANCH   3   7
BRANCH   4   9
ATOM      9  O   UNL     1      -3.960   0.491   0.692  0.00  0.00    -0.503 OA
ATOM     10  H   UNL     1      -4.557   0.889  -0.024  0.00  0.00    +0.292 HD
ENDBRANCH   4   9
BRANCH   1  11
ATOM     11  C   UNL     1       1.542  -0.758  -0.193  0.00  0.00    +0.050 C 
BRANCH  11  12
ATOM     12  C   UNL     1       2.407   0.462   0.151  0.00  0.00    +0.082 C 
BRANCH  12  13
ATOM     13  N   UNL     1       3.826   0.182  -0.053  0.00  0.00    -0.330 NA
ATOM     14  H   UNL     1       4.100  -0.631   0.545  0.00  0.00    +0.118 HD
ATOM     15  H   UNL     1       3.976  -0.092  -1.051  0.00  0.00    +0.118 HD
ENDBRANCH  12  13
ENDBRANCH  11  12
ENDBRANCH   1  11
TORSDOF 5
