REMARK  Name = 
REMARK  6 active torsions:
REMARK  status: ('A' for Active; 'I' for Inactive)
REMARK    1  A    between atoms: C_1  and  C_2
REMARK    2  A    between atoms: C_2  and  N_3
REMARK    3  A    between atoms: N_3  and  C_4
REMARK    4  A    between atoms: C_6  and  C_7
REMARK    5  A    between atoms: C_14  and  S_16
REMARK    6  A    between atoms: S_16  and  N_17
REMARK                            x       y       z     vdW  Elec       q    Type
REMARK                         _______ _______ _______ _____ _____    ______ ____
ROOT
ATOM      1  C   UNL     1      -0.864  -0.026  -0.308  0.00  0.00    +0.088 C 
ATOM      2  C   UNL     1      -1.645  -1.332  -0.600  0.00  0.00    +0.049 C 
ATOM      3  C   UNL     1      -1.806  -2.276   0.611  0.00  0.00    +0.135 C 
ATOM      4  C   UNL     1      -2.613  -1.638   1.748  0.00  0.00    +0.032 C 
ATOM      5  S   UNL     1      -0.197  -2.806   1.181  0.00  0.00    +0.006 S 
ATOM      6  O   UNL     1       0.274  -3.974   0.362  0.00  0.00    -0.169 OA
ATOM      7  O   UNL     1      -0.240  -3.185   2.635  0.00  0.00    -0.169 OA
ATOM      8  C   UNL     1       0.873  -1.450   0.940  0.00  0.00    +0.132 A 
ATOM      9  C   UNL     1       0.532  -0.293   0.246  0.00  0.00    +0.004 A 
ATOM     10  C   UNL     1       1.582   0.642   0.236  0.00  0.00    +0.043 A 
ATOM     11  C   UNL     1       2.724   0.188   0.882  0.00  0.00    +0.144 A 
ATOM     12  S   UNL     1       2.456  -1.353   1.495  0.00  0.00    -0.050 S 
ENDROOT
BRANCH  11  13
ATOM     13  S   UNL     1       4.225   1.083   1.031  0.00  0.00    +0.062 S 
ATOM     14  O   UNL     1       3.931   2.475   1.516  0.00  0.00    -0.153 OA
ATOM     15  O   UNL     1       5.123   0.399   2.023  0.00  0.00    -0.153 OA
BRANCH  13  16
ATOM     16  N   UNL     1       5.016   1.155  -0.504  0.00  0.00    -0.203 NA
ATOM     17  H   UNL     1       5.137   0.170  -0.831  0.00  0.00    +0.144 HD
ATOM     18  H   UNL     1       4.352   1.613  -1.169  0.00  0.00    +0.144 HD
ENDBRANCH  13  16
ENDBRANCH  11  13
BRANCH   1  19
ATOM     19  N   UNL     1      -0.819   0.755  -1.563  0.00  0.00    -0.309 NA
ATOM     20  H   UNL     1       0.091   0.615  -2.063  0.00  0.00    +0.122 HD
BRANCH  19  22
ATOM     21  C   UNL     1      -2.557   2.484  -1.402  0.00  0.00    +0.020 C 
ATOM     22  C   UNL     1      -1.061   2.192  -1.361  0.00  0.00    +0.078 C 
ENDBRANCH  19  22
ENDBRANCH   1  19
TORSDOF 4
