REMARK  Name = 
REMARK  5 active torsions:
REMARK  status: ('A' for Active; 'I' for Inactive)
REMARK    1  A    between atoms: C_1  and  O_2
REMARK    2  A    between atoms: O_2  and  C_3
REMARK    3  A    between atoms: C_4  and  O_5
REMARK    4  A    between atoms: O_5  and  C_6
REMARK    5  A    between atoms: C_22  and  C_24
REMARK                            x       y       z     vdW  Elec       q    Type
REMARK                         _______ _______ _______ _____ _____    ______ ____
ROOT
ATOM      1  C   UNL     1       6.002   0.374   0.260  0.00  0.00    +0.164 A 
ATOM      2  C   UNL     1       6.124   1.544  -0.506  0.00  0.00    +0.162 A 
ATOM      3  C   UNL     1       5.026   2.006  -1.258  0.00  0.00    +0.062 A 
ATOM      4  C   UNL     1       3.799   1.312  -1.242  0.00  0.00    +0.044 A 
ATOM      5  C   UNL     1       2.654   1.723  -1.967  0.00  0.00    +0.129 A 
ATOM      6  N   UNL     1       2.636   2.889  -2.821  0.00  0.00    -0.343 N 
ATOM      7  N   UNL     1       1.511   0.990  -1.865  0.00  0.00    -0.199 NA
ATOM      8  C   UNL     1       1.425  -0.126  -1.097  0.00  0.00    +0.220 A 
ATOM      9  N   UNL     1       2.517  -0.539  -0.407  0.00  0.00    -0.214 NA
ATOM     10  C   UNL     1       3.692   0.138  -0.463  0.00  0.00    +0.082 A 
ATOM     11  C   UNL     1       4.782  -0.326   0.275  0.00  0.00    +0.078 A 
ATOM     12  N   UNL     1       0.169  -0.826  -0.955  0.00  0.00    -0.297 N 
ATOM     13  C   UNL     1      -1.041  -0.389  -1.669  0.00  0.00    +0.127 C 
ATOM     14  C   UNL     1      -2.167  -0.142  -0.659  0.00  0.00    +0.127 C 
ATOM     15  N   UNL     1      -2.230  -1.217   0.334  0.00  0.00    -0.295 N 
ATOM     16  C   UNL     1      -1.370  -2.398   0.204  0.00  0.00    +0.127 C 
ATOM     17  C   UNL     1       0.080  -1.948  -0.003  0.00  0.00    +0.127 C 
ATOM     18  C   UNL     1      -3.039  -1.024   1.499  0.00  0.00    +0.260 C 
ATOM     19  O   UNL     1      -2.821  -0.011   2.227  0.00  0.00    -0.271 OA
ATOM     20  H   UNL     1       3.440   3.561  -2.926  0.00  0.00    +0.144 HD
ATOM     21  H   UNL     1       1.803   3.067  -3.422  0.00  0.00    +0.144 HD
ENDROOT
BRANCH  18  22
ATOM     22  C   UNL     1      -4.141  -1.994   1.859  0.00  0.00    +0.296 C 
ATOM     23  C   UNL     1      -4.845  -2.543   0.599  0.00  0.00    +0.283 C 
ATOM     24  O   UNL     1      -5.603  -1.508  -0.030  0.00  0.00    -0.484 OA
ATOM     25  C   UNL     1      -6.351  -0.607   0.734  0.00  0.00    +0.162 A 
ATOM     26  C   UNL     1      -7.309   0.221   0.138  0.00  0.00    +0.049 A 
ATOM     27  C   UNL     1      -8.092   1.072   0.933  0.00  0.00    +0.004 A 
ATOM     28  C   UNL     1      -7.899   1.107   2.318  0.00  0.00    +0.004 A 
ATOM     29  C   UNL     1      -6.913   0.301   2.911  0.00  0.00    +0.049 A 
ATOM     30  C   UNL     1      -6.129  -0.546   2.118  0.00  0.00    +0.163 A 
ATOM     31  O   UNL     1      -5.112  -1.336   2.682  0.00  0.00    -0.473 OA
ENDBRANCH  18  22
BRANCH   1  33
ATOM     32  C   UNL     1       7.143  -1.234   1.800  0.00  0.00    +0.277 C 
ATOM     33  O   UNL     1       7.115  -0.057   0.999  0.00  0.00    -0.491 OA
ENDBRANCH   1  33
BRANCH   2  34
ATOM     34  O   UNL     1       7.358   2.218  -0.497  0.00  0.00    -0.491 OA
ATOM     35  C   UNL     1       7.620   3.440  -1.186  0.00  0.00    +0.277 C 
ENDBRANCH   2  34
TORSDOF 3
