REMARK  Name = 
REMARK  43 active torsions:
REMARK  status: ('A' for Active; 'I' for Inactive)
REMARK    1  A    between atoms: C_1  and  O_2
REMARK    2  A    between atoms: O_2  and  C_3
REMARK    3  A    between atoms: C_5  and  C_6
REMARK    4  A    between atoms: C_6  and  C_7
REMARK    5  A    between atoms: N_12  and  C_13
REMARK    6  A    between atoms: N_12  and  C_14
REMARK    7  A    between atoms: C_14  and  C_15
REMARK    8  A    between atoms: C_15  and  C_16
REMARK    9  A    between atoms: C_16  and  O_17
REMARK   10  A    between atoms: O_17  and  C_18
REMARK   11  A    between atoms: C_18  and  C_20
REMARK   12  A    between atoms: C_20  and  C_21
REMARK   13  A    between atoms: C_21  and  C_22
REMARK   14  A    between atoms: C_22  and  O_24
REMARK   15  A    between atoms: O_24  and  C_25
REMARK   16  A    between atoms: C_25  and  C_26
REMARK   17  A    between atoms: C_26  and  C_27
REMARK   18  A    between atoms: C_27  and  N_28
REMARK   19  A    between atoms: N_28  and  C_29
REMARK   20  A    between atoms: C_34  and  C_35
REMARK   21  A    between atoms: C_35  and  C_36
REMARK   22  A    between atoms: C_38  and  O_39
REMARK   23  A    between atoms: O_39  and  C_40
REMARK   24  A    between atoms: C_41  and  O_42
REMARK   25  A    between atoms: O_42  and  C_43
REMARK   26  A    between atoms: C_44  and  O_45
REMARK   27  A    between atoms: O_45  and  C_46
REMARK   28  A    between atoms: C_48  and  O_49
REMARK   29  A    between atoms: O_49  and  C_50
REMARK   30  A    between atoms: C_51  and  O_52
REMARK   31  A    between atoms: O_52  and  C_53
REMARK   32  A    between atoms: C_54  and  O_55
REMARK   33  A    between atoms: O_55  and  C_56
REMARK   34  A    between atoms: C_59  and  O_60
REMARK   35  A    between atoms: O_60  and  C_61
REMARK   36  A    between atoms: C_62  and  O_63
REMARK   37  A    between atoms: O_63  and  C_64
REMARK   38  A    between atoms: C_65  and  O_66
REMARK   39  A    between atoms: O_66  and  C_67
REMARK   40  A    between atoms: C_69  and  O_70
REMARK   41  A    between atoms: O_70  and  C_71
REMARK   42  A    between atoms: C_72  and  O_73
REMARK   43  A    between atoms: O_73  and  C_74
REMARK                            x       y       z     vdW  Elec       q    Type
REMARK                         _______ _______ _______ _____ _____    ______ ____
ROOT
ATOM      1  C   UNL     1      -0.994   3.478  -2.576  0.00  0.00    +0.132 C 
ENDROOT
BRANCH   1   2
ATOM      2  C   UNL     1       0.466   3.502  -2.219  0.00  0.00    +0.308 C 
ATOM      3  O   UNL     1       1.289   4.051  -2.999  0.00  0.00    -0.251 OA
BRANCH   2   4
ATOM      4  O   UNL     1       0.908   2.868  -1.051  0.00  0.00    -0.465 OA
BRANCH   4   5
ATOM      5  C   UNL     1       2.281   2.686  -0.714  0.00  0.00    +0.230 C 
BRANCH   5   6
ATOM      6  C   UNL     1       2.938   1.657  -1.645  0.00  0.00    +0.023 C 
BRANCH   6   7
ATOM      7  C   UNL     1       4.119   0.947  -0.937  0.00  0.00    -0.071 C 
BRANCH   7  13
ATOM      8  C   UNL     1       6.085  -0.495  -0.880  0.00  0.00    -0.026 C 
ATOM      9  C   UNL     1       7.386   0.314  -0.986  0.00  0.00    -0.011 A 
ATOM     10  C   UNL     1       7.840   0.628  -2.268  0.00  0.00    -0.040 A 
ATOM     11  C   UNL     1       6.904   0.422  -3.416  0.00  0.00    +0.017 C 
ATOM     12  C   UNL     1       5.512   0.861  -2.955  0.00  0.00    -0.070 C 
ATOM     13  N   UNL     1       4.979   0.058  -1.794  0.00  0.00    +0.383 N 
ATOM     14  C   UNL     1       4.119  -1.030  -2.344  0.00  0.00    -0.091 C 
ATOM     15  C   UNL     1       9.102   1.181  -2.460  0.00  0.00    +0.053 A 
ATOM     16  C   UNL     1       9.936   1.459  -1.367  0.00  0.00    +0.165 A 
ATOM     17  C   UNL     1       9.480   1.185  -0.049  0.00  0.00    +0.204 A 
ATOM     18  C   UNL     1       8.188   0.614   0.140  0.00  0.00    +0.167 A 
BRANCH  16  19
ATOM     19  O   UNL     1      11.209   2.012  -1.568  0.00  0.00    -0.491 OA
ATOM     20  C   UNL     1      11.827   2.207  -2.838  0.00  0.00    +0.277 C 
ENDBRANCH  16  19
BRANCH  17  21
ATOM     21  O   UNL     1      10.275   1.431   1.086  0.00  0.00    -0.488 OA
ATOM     22  C   UNL     1      11.621   1.899   1.115  0.00  0.00    +0.277 C 
ENDBRANCH  17  21
BRANCH  18  23
ATOM     23  O   UNL     1       7.658   0.296   1.406  0.00  0.00    -0.491 OA
ATOM     24  C   UNL     1       8.254   0.540   2.678  0.00  0.00    +0.277 C 
ENDBRANCH  18  23
BRANCH   8  25
ATOM     25  C   UNL     1       6.437  -2.015  -1.055  0.00  0.00    +0.025 C 
BRANCH  25  28
ATOM     26  C   UNL     1       7.774  -3.267   2.300  0.00  0.00    +0.165 A 
ATOM     27  C   UNL     1       6.899  -2.906   1.262  0.00  0.00    +0.053 A 
ATOM     28  C   UNL     1       7.390  -2.503   0.013  0.00  0.00    -0.041 A 
ATOM     29  C   UNL     1       8.773  -2.473  -0.205  0.00  0.00    +0.053 A 
ATOM     30  C   UNL     1       9.666  -2.784   0.836  0.00  0.00    +0.165 A 
ATOM     31  C   UNL     1       9.165  -3.177   2.089  0.00  0.00    +0.204 A 
BRANCH  26  33
ATOM     32  C   UNL     1       5.921  -3.836   3.887  0.00  0.00    +0.277 C 
ATOM     33  O   UNL     1       7.298  -3.736   3.534  0.00  0.00    -0.491 OA
ENDBRANCH  26  33
BRANCH  30  34
ATOM     34  O   UNL     1      11.059  -2.692   0.673  0.00  0.00    -0.491 OA
ATOM     35  C   UNL     1      11.702  -2.197  -0.495  0.00  0.00    +0.277 C 
ENDBRANCH  30  34
BRANCH  31  36
ATOM     36  O   UNL     1      10.085  -3.493   3.098  0.00  0.00    -0.488 OA
ATOM     37  C   UNL     1      10.074  -2.888   4.388  0.00  0.00    +0.277 C 
ENDBRANCH  31  36
ENDBRANCH  25  28
ENDBRANCH   8  25
ENDBRANCH   7  13
ENDBRANCH   6   7
ENDBRANCH   5   6
ENDBRANCH   4   5
ENDBRANCH   2   4
ENDBRANCH   1   2
BRANCH   1  38
ATOM     38  C   UNL     1      -1.913   3.584  -1.349  0.00  0.00    +0.132 C 
BRANCH  38  39
ATOM     39  C   UNL     1      -1.845   2.371  -0.464  0.00  0.00    +0.308 C 
ATOM     40  O   UNL     1      -1.860   2.515   0.789  0.00  0.00    -0.251 OA
BRANCH  39  41
ATOM     41  O   UNL     1      -1.795   1.093  -1.034  0.00  0.00    -0.465 OA
BRANCH  41  42
ATOM     42  C   UNL     1      -1.804  -0.112  -0.270  0.00  0.00    +0.230 C 
BRANCH  42  43
ATOM     43  C   UNL     1      -3.183  -0.366   0.385  0.00  0.00    +0.023 C 
BRANCH  43  44
ATOM     44  C   UNL     1      -4.052  -1.439  -0.331  0.00  0.00    -0.071 C 
BRANCH  44  45
ATOM     45  N   UNL     1      -5.057  -0.963  -1.355  0.00  0.00    +0.383 N 
ATOM     46  C   UNL     1      -4.454   0.044  -2.280  0.00  0.00    -0.091 C 
ATOM     47  C   UNL     1      -5.396  -2.110  -2.259  0.00  0.00    -0.070 C 
ATOM     48  C   UNL     1      -6.018  -3.305  -1.546  0.00  0.00    +0.017 C 
ATOM     49  C   UNL     1      -6.981  -2.933  -0.455  0.00  0.00    -0.040 A 
ATOM     50  C   UNL     1      -7.075  -1.618   0.065  0.00  0.00    -0.011 A 
ATOM     51  C   UNL     1      -6.367  -0.484  -0.751  0.00  0.00    -0.026 C 
ATOM     52  C   UNL     1      -7.901  -1.416   1.226  0.00  0.00    +0.167 A 
ATOM     53  C   UNL     1      -8.581  -2.517   1.820  0.00  0.00    +0.204 A 
ATOM     54  C   UNL     1      -8.461  -3.803   1.271  0.00  0.00    +0.165 A 
ATOM     55  C   UNL     1      -7.682  -3.988   0.130  0.00  0.00    +0.053 A 
BRANCH  52  56
ATOM     56  O   UNL     1      -8.019  -0.125   1.770  0.00  0.00    -0.491 OA
ATOM     57  C   UNL     1      -8.996   0.356   2.688  0.00  0.00    +0.277 C 
ENDBRANCH  52  56
BRANCH  53  58
ATOM     58  O   UNL     1      -9.323  -2.310   2.994  0.00  0.00    -0.488 OA
ATOM     59  C   UNL     1     -10.594  -2.895   3.271  0.00  0.00    +0.277 C 
ENDBRANCH  53  58
BRANCH  54  60
ATOM     60  O   UNL     1      -9.082  -4.889   1.910  0.00  0.00    -0.491 OA
ATOM     61  C   UNL     1      -9.017  -6.245   1.477  0.00  0.00    +0.277 C 
ENDBRANCH  54  60
BRANCH  51  62
ATOM     62  C   UNL     1      -6.272   0.904  -0.021  0.00  0.00    +0.025 C 
BRANCH  62  63
ATOM     63  C   UNL     1      -7.491   1.822  -0.090  0.00  0.00    -0.041 A 
ATOM     64  C   UNL     1      -8.756   1.413  -0.559  0.00  0.00    +0.053 A 
ATOM     65  C   UNL     1      -9.851   2.293  -0.540  0.00  0.00    +0.165 A 
ATOM     66  C   UNL     1      -9.690   3.590  -0.038  0.00  0.00    +0.204 A 
ATOM     67  C   UNL     1      -8.435   4.023   0.419  0.00  0.00    +0.165 A 
ATOM     68  C   UNL     1      -7.347   3.131   0.397  0.00  0.00    +0.053 A 
BRANCH  65  69
ATOM     69  O   UNL     1     -11.120   1.909  -1.004  0.00  0.00    -0.491 OA
ATOM     70  C   UNL     1     -11.445   0.616  -1.498  0.00  0.00    +0.277 C 
ENDBRANCH  65  69
BRANCH  66  71
ATOM     71  O   UNL     1     -10.800   4.441  -0.014  0.00  0.00    -0.488 OA
ATOM     72  C   UNL     1     -11.333   4.970   1.199  0.00  0.00    +0.277 C 
ENDBRANCH  66  71
BRANCH  67  73
ATOM     73  O   UNL     1      -8.295   5.342   0.877  0.00  0.00    -0.491 OA
ATOM     74  C   UNL     1      -7.082   5.918   1.348  0.00  0.00    +0.277 C 
ENDBRANCH  67  73
ENDBRANCH  62  63
ENDBRANCH  51  62
ENDBRANCH  44  45
ENDBRANCH  43  44
ENDBRANCH  42  43
ENDBRANCH  41  42
ENDBRANCH  39  41
ENDBRANCH  38  39
ENDBRANCH   1  38
TORSDOF 29
