REMARK  Name = 
REMARK  7 active torsions:
REMARK  status: ('A' for Active; 'I' for Inactive)
REMARK    1  A    between atoms: C_1  and  C_2
REMARK    2  A    between atoms: C_2  and  N_3
REMARK    3  A    between atoms: C_5  and  C_6
REMARK    4  A    between atoms: C_6  and  C_7
REMARK    5  A    between atoms: C_7  and  N_8
REMARK    6  A    between atoms: C_14  and  C_17
REMARK    7  A    between atoms: C_14  and  C_23
REMARK                            x       y       z     vdW  Elec       q    Type
REMARK                         _______ _______ _______ _____ _____    ______ ____
ROOT
ATOM      1  N   UNL     1      -1.313   2.324   0.847  0.00  0.00    -0.300 N 
ATOM      2  C   UNL     1      -0.051   1.702   1.188  0.00  0.00    +0.113 C 
ATOM      3  C   UNL     1       0.052   0.486   0.246  0.00  0.00    +0.031 C 
ATOM      4  C   UNL     1      -1.429   0.084  -0.122  0.00  0.00    +0.101 C 
ATOM      5  C   UNL     1      -2.110   1.411   0.110  0.00  0.00    +0.231 C 
ATOM      6  O   UNL     1      -3.296   1.677  -0.223  0.00  0.00    -0.274 OA
ENDROOT
BRANCH   4   7
ATOM      7  C   UNL     1      -1.623  -0.360  -1.591  0.00  0.00    -0.028 A 
ATOM      8  C   UNL     1      -2.932  -0.537  -2.097  0.00  0.00    +0.005 A 
ATOM      9  C   UNL     1      -3.148  -0.981  -3.404  0.00  0.00    +0.000 A 
ATOM     10  C   UNL     1      -2.066  -1.292  -4.225  0.00  0.00    +0.000 A 
ATOM     11  C   UNL     1      -0.767  -1.185  -3.732  0.00  0.00    +0.000 A 
ATOM     12  C   UNL     1      -0.543  -0.744  -2.424  0.00  0.00    +0.005 A 
ENDBRANCH   4   7
BRANCH   4  13
ATOM     13  C   UNL     1      -1.981  -0.986   0.846  0.00  0.00    -0.028 A 
ATOM     14  C   UNL     1      -1.887  -2.360   0.524  0.00  0.00    +0.005 A 
ATOM     15  C   UNL     1      -2.329  -3.339   1.418  0.00  0.00    +0.000 A 
ATOM     16  C   UNL     1      -2.851  -2.973   2.657  0.00  0.00    +0.000 A 
ATOM     17  C   UNL     1      -2.922  -1.626   3.011  0.00  0.00    +0.000 A 
ATOM     18  C   UNL     1      -2.483  -0.641   2.123  0.00  0.00    +0.005 A 
ENDBRANCH   4  13
BRANCH   1  20
ATOM     19  C   UNL     1      -2.686   3.401   2.576  0.00  0.00    +0.024 C 
ATOM     20  C   UNL     1      -1.768   3.608   1.377  0.00  0.00    +0.104 C 
ENDBRANCH   1  20
BRANCH   3  21
ATOM     21  C   UNL     1       0.925  -0.655   0.828  0.00  0.00    +0.022 C 
BRANCH  21  22
ATOM     22  C   UNL     1       2.400  -0.254   0.999  0.00  0.00    +0.085 C 
BRANCH  22  23
ATOM     23  N   UNL     1       3.003   0.136  -0.293  0.00  0.00    -0.298 NA
ATOM     24  C   UNL     1       4.114   1.086  -0.085  0.00  0.00    +0.112 C 
ATOM     25  C   UNL     1       4.984   1.188  -1.349  0.00  0.00    +0.175 C 
ATOM     26  O   UNL     1       5.555  -0.044  -1.777  0.00  0.00    -0.377 OA
ATOM     27  C   UNL     1       4.925  -1.188  -1.223  0.00  0.00    +0.175 C 
ATOM     28  C   UNL     1       3.398  -1.036  -1.116  0.00  0.00    +0.112 C 
ENDBRANCH  22  23
ENDBRANCH  21  22
ENDBRANCH   3  21
TORSDOF 6
