REMARK  Name = 
REMARK  5 active torsions:
REMARK  status: ('A' for Active; 'I' for Inactive)
REMARK    1  A    between atoms: C_1  and  C_2
REMARK    2  A    between atoms: C_2  and  C_3
REMARK    3  A    between atoms: C_3  and  N_4
REMARK    4  A    between atoms: N_4  and  C_5
REMARK    5  A    between atoms: N_4  and  C_6
REMARK                            x       y       z     vdW  Elec       q    Type
REMARK                         _______ _______ _______ _____ _____    ______ ____
ROOT
ATOM      1  C   UNL     1       0.454  -1.180   0.580  0.00  0.00    -0.017 C 
ATOM      2  C   UNL     1      -0.683  -0.580   0.165  0.00  0.00    -0.011 C 
ATOM      3  C   UNL     1      -1.947  -1.359   0.113  0.00  0.00    -0.011 A 
ATOM      4  C   UNL     1      -1.924  -2.597  -0.562  0.00  0.00    +0.009 A 
ATOM      5  C   UNL     1      -3.071  -3.382  -0.665  0.00  0.00    +0.001 A 
ATOM      6  C   UNL     1      -4.265  -2.945  -0.103  0.00  0.00    +0.000 A 
ATOM      7  C   UNL     1      -4.317  -1.722   0.563  0.00  0.00    +0.007 A 
ATOM      8  C   UNL     1      -3.174  -0.909   0.689  0.00  0.00    -0.003 A 
ATOM      9  C   UNL     1      -3.385   0.402   1.435  0.00  0.00    +0.265 C 
ATOM     10  O   UNL     1      -2.211   1.168   1.681  0.00  0.00    -0.487 OA
ATOM     11  C   UNL     1      -1.467   1.706   0.638  0.00  0.00    +0.129 A 
ATOM     12  C   UNL     1      -1.453   3.087   0.413  0.00  0.00    +0.046 A 
ATOM     13  C   UNL     1      -0.722   3.611  -0.658  0.00  0.00    +0.004 A 
ATOM     14  C   UNL     1      -0.007   2.754  -1.502  0.00  0.00    +0.001 A 
ATOM     15  C   UNL     1      -0.009   1.376  -1.264  0.00  0.00    +0.012 A 
ATOM     16  C   UNL     1      -0.726   0.853  -0.176  0.00  0.00    +0.024 A 
ENDROOT
BRANCH   1  17
ATOM     17  C   UNL     1       1.782  -0.487   0.749  0.00  0.00    +0.043 C 
BRANCH  17  18
ATOM     18  C   UNL     1       2.752  -0.911  -0.373  0.00  0.00    +0.088 C 
BRANCH  18  19
ATOM     19  N   UNL     1       4.014  -0.139  -0.411  0.00  0.00    -0.308 NA
ATOM     20  C   UNL     1       3.819   1.257  -0.835  0.00  0.00    +0.104 C 
ATOM     21  C   UNL     1       4.771  -0.212   0.849  0.00  0.00    +0.104 C 
ENDBRANCH  18  19
ENDBRANCH  17  18
ENDBRANCH   1  17
TORSDOF 3
