REMARK  Name = 
REMARK  13 active torsions:
REMARK  status: ('A' for Active; 'I' for Inactive)
REMARK    1  A    between atoms: C_1  and  O_2
REMARK    2  A    between atoms: O_2  and  C_3
REMARK    3  A    between atoms: C_12  and  O_13
REMARK    4  A    between atoms: C_17  and  O_18
REMARK    5  A    between atoms: C_17  and  C_31
REMARK    6  A    between atoms: C_20  and  O_21
REMARK    7  A    between atoms: O_21  and  C_22
REMARK    8  A    between atoms: C_24  and  N_25
REMARK    9  A    between atoms: C_26  and  O_27
REMARK   10  A    between atoms: C_28  and  C_29
REMARK   11  A    between atoms: C_31  and  C_33
REMARK   12  A    between atoms: C_33  and  O_34
REMARK   13  A    between atoms: C_35  and  O_36
REMARK                            x       y       z     vdW  Elec       q    Type
REMARK                         _______ _______ _______ _____ _____    ______ ____
ROOT
ATOM      1  C   UNL     1       5.417   2.721   0.533  0.00  0.00    +0.132 A 
ATOM      2  C   UNL     1       6.792   2.710   0.232  0.00  0.00    +0.046 A 
ATOM      3  C   UNL     1       7.459   1.505   0.016  0.00  0.00    +0.004 A 
ATOM      4  C   UNL     1       6.767   0.298   0.089  0.00  0.00    +0.012 A 
ATOM      5  C   UNL     1       5.394   0.281   0.385  0.00  0.00    +0.037 A 
ATOM      6  C   UNL     1       4.717   1.494   0.623  0.00  0.00    +0.075 A 
ATOM      7  C   UNL     1       3.282   1.444   0.991  0.00  0.00    +0.202 C 
ATOM      8  O   UNL     1       2.775   2.397   1.642  0.00  0.00    -0.286 OA
ATOM      9  C   UNL     1       2.482   0.219   0.707  0.00  0.00    +0.078 A 
ATOM     10  C   UNL     1       1.068   0.243   0.681  0.00  0.00    +0.134 A 
ATOM     11  C   UNL     1       0.333  -0.956   0.594  0.00  0.00    +0.030 A 
ATOM     12  C   UNL     1       1.011  -2.186   0.401  0.00  0.00    +0.007 A 
ATOM     13  C   UNL     1       0.243  -3.493   0.285  0.00  0.00    +0.082 C 
ATOM     14  C   UNL     1      -1.253  -3.329  -0.045  0.00  0.00    +0.133 C 
ATOM     15  C   UNL     1      -1.844  -2.235   0.864  0.00  0.00    +0.079 C 
ATOM     16  C   UNL     1      -1.185  -0.869   0.611  0.00  0.00    +0.158 C 
ATOM     17  C   UNL     1       2.427  -2.206   0.396  0.00  0.00    +0.132 A 
ATOM     18  C   UNL     1       3.162  -1.004   0.520  0.00  0.00    +0.078 A 
ATOM     19  C   UNL     1       4.655  -1.000   0.456  0.00  0.00    +0.198 C 
ATOM     20  O   UNL     1       5.302  -2.083   0.452  0.00  0.00    -0.286 OA
ENDROOT
BRANCH   1  22
ATOM     21  C   UNL     1       5.304   5.223   0.643  0.00  0.00    +0.277 C 
ATOM     22  O   UNL     1       4.722   3.927   0.731  0.00  0.00    -0.494 OA
ENDBRANCH   1  22
BRANCH  10  23
ATOM     23  O   UNL     1       0.356   1.448   0.701  0.00  0.00    -0.506 OA
ATOM     24  H   UNL     1       0.759   2.343   0.458  0.00  0.00    +0.292 HD
ENDBRANCH  10  23
BRANCH  14  25
ATOM     25  O   UNL     1      -1.371  -2.959  -1.402  0.00  0.00    -0.381 OA
ATOM     26  H   UNL     1      -2.328  -2.765  -1.584  0.00  0.00    +0.211 HD
ENDBRANCH  14  25
BRANCH  14  27
ATOM     27  C   UNL     1      -1.963  -4.658   0.206  0.00  0.00    +0.190 C 
ATOM     28  O   UNL     1      -2.072  -5.071   1.353  0.00  0.00    -0.292 OA
BRANCH  27  29
ATOM     29  C   UNL     1      -2.562  -5.458  -0.923  0.00  0.00    +0.233 C 
BRANCH  29  30
ATOM     30  O   UNL     1      -2.874  -6.755  -0.494  0.00  0.00    -0.387 OA
ATOM     31  H   UNL     1      -3.230  -7.231  -1.287  0.00  0.00    +0.210 HD
ENDBRANCH  29  30
ENDBRANCH  27  29
ENDBRANCH  14  27
BRANCH  17  32
ATOM     32  O   UNL     1       3.128  -3.414   0.285  0.00  0.00    -0.506 OA
ATOM     33  H   UNL     1       2.700  -4.329   0.274  0.00  0.00    +0.292 HD
ENDBRANCH  17  32
BRANCH  16  34
ATOM     34  O   UNL     1      -1.616  -0.339  -0.636  0.00  0.00    -0.343 OA
BRANCH  34  35
ATOM     35  C   UNL     1      -2.606   0.660  -0.475  0.00  0.00    +0.253 C 
ATOM     36  C   UNL     1      -2.789   1.393  -1.819  0.00  0.00    +0.082 C 
ATOM     37  C   UNL     1      -4.204   1.999  -1.953  0.00  0.00    +0.087 C 
ATOM     38  C   UNL     1      -4.791   2.323  -0.566  0.00  0.00    +0.160 C 
ATOM     39  C   UNL     1      -4.802   1.023   0.301  0.00  0.00    +0.148 C 
ATOM     40  C   UNL     1      -4.732   1.283   1.810  0.00  0.00    +0.041 C 
ATOM     41  O   UNL     1      -3.828   0.058  -0.082  0.00  0.00    -0.346 OA
BRANCH  37  42
ATOM     42  N   UNL     1      -4.167   3.200  -2.789  0.00  0.00    -0.325 NA
ATOM     43  H   UNL     1      -5.147   3.541  -2.921  0.00  0.00    +0.119 HD
ATOM     44  H   UNL     1      -3.828   2.925  -3.740  0.00  0.00    +0.119 HD
ENDBRANCH  37  42
BRANCH  38  45
ATOM     45  O   UNL     1      -4.026   3.342   0.036  0.00  0.00    -0.388 OA
ATOM     46  H   UNL     1      -4.636   3.852   0.632  0.00  0.00    +0.210 HD
ENDBRANCH  38  45
ENDBRANCH  34  35
ENDBRANCH  16  34
TORSDOF 11
