REMARK  Name = 
REMARK  9 active torsions:
REMARK  status: ('A' for Active; 'I' for Inactive)
REMARK    1  A    between atoms: C_1  and  N_2
REMARK    2  A    between atoms: N_2  and  C_3
REMARK    3  A    between atoms: N_2  and  C_4
REMARK    4  A    between atoms: C_4  and  C_5
REMARK    5  A    between atoms: C_5  and  O_6
REMARK    6  A    between atoms: O_6  and  C_7
REMARK    7  A    between atoms: C_7  and  C_8
REMARK    8  A    between atoms: C_7  and  C_9
REMARK    9  A    between atoms: C_7  and  C_15
REMARK                            x       y       z     vdW  Elec       q    Type
REMARK                         _______ _______ _______ _____ _____    ______ ____
ROOT
ATOM      1  C   UNL     1      -0.822  -0.280   0.992  0.00  0.00    +0.133 C 
ATOM      2  C   UNL     1      -1.251  -0.128   2.466  0.00  0.00    +0.053 C 
ENDROOT
BRANCH   1   3
ATOM      3  C   UNL     1      -1.194   1.052   0.313  0.00  0.00    -0.010 A 
ATOM      4  C   UNL     1      -2.536   1.342  -0.021  0.00  0.00    +0.007 A 
ATOM      5  C   UNL     1      -2.884   2.575  -0.580  0.00  0.00    +0.000 A 
ATOM      6  C   UNL     1      -1.910   3.554  -0.778  0.00  0.00    +0.000 A 
ATOM      7  C   UNL     1      -0.591   3.311  -0.394  0.00  0.00    +0.000 A 
ATOM      8  C   UNL     1      -0.238   2.081   0.168  0.00  0.00    +0.007 A 
ENDBRANCH   1   3
BRANCH   1   9
ATOM      9  C   UNL     1      -1.547  -1.488   0.365  0.00  0.00    +0.077 A 
ATOM     10  C   UNL     1      -1.598  -2.735   1.021  0.00  0.00    +0.026 A 
ATOM     11  C   UNL     1      -2.188  -3.829   0.384  0.00  0.00    +0.003 A 
ATOM     12  C   UNL     1      -2.697  -3.692  -0.906  0.00  0.00    +0.020 A 
ATOM     13  C   UNL     1      -2.595  -2.460  -1.550  0.00  0.00    +0.111 A 
ATOM     14  N   UNL     1      -2.019  -1.406  -0.914  0.00  0.00    -0.257 NA
ENDBRANCH   1   9
BRANCH   1  15
ATOM     15  O   UNL     1       0.593  -0.485   0.998  0.00  0.00    -0.362 OA
BRANCH  15  16
ATOM     16  C   UNL     1       1.117  -0.861  -0.268  0.00  0.00    +0.177 C 
BRANCH  16  17
ATOM     17  C   UNL     1       2.642  -0.742  -0.248  0.00  0.00    +0.112 C 
BRANCH  17  19
ATOM     18  C   UNL     1       4.377   0.688   0.657  0.00  0.00    +0.104 C 
ATOM     19  N   UNL     1       3.061   0.655  -0.001  0.00  0.00    -0.306 NA
ATOM     20  C   UNL     1       3.124   1.419  -1.260  0.00  0.00    +0.104 C 
ENDBRANCH  17  19
ENDBRANCH  16  17
ENDBRANCH  15  16
ENDBRANCH   1  15
TORSDOF 6
