REMARK  Name = 
REMARK  10 active torsions:
REMARK  status: ('A' for Active; 'I' for Inactive)
REMARK    1  A    between atoms: C_2  and  C_3
REMARK    2  A    between atoms: C_6  and  O_7
REMARK    3  A    between atoms: C_14  and  O_15
REMARK    4  A    between atoms: C_16  and  O_17
REMARK    5  A    between atoms: C_20  and  C_21
REMARK    6  A    between atoms: C_24  and  O_25
REMARK    7  A    between atoms: C_26  and  N_27
REMARK    8  A    between atoms: N_27  and  C_28
REMARK    9  A    between atoms: N_27  and  C_29
REMARK   10  A    between atoms: C_31  and  O_32
REMARK                            x       y       z     vdW  Elec       q    Type
REMARK                         _______ _______ _______ _____ _____    ______ ____
ROOT
ATOM      1  C   UNL     1       1.255  -0.969   0.518  0.00  0.00    +0.062 C 
ATOM      2  C   UNL     1       2.208  -0.786   1.763  0.00  0.00    +0.027 C 
ATOM      3  C   UNL     1       2.660  -2.164   2.283  0.00  0.00    +0.013 C 
ATOM      4  C   UNL     1       3.441   0.095   1.546  0.00  0.00    -0.030 A 
ATOM      5  C   UNL     1       3.866   0.497   0.258  0.00  0.00    +0.067 A 
ATOM      6  C   UNL     1       5.041   1.282   0.119  0.00  0.00    +0.128 A 
ATOM      7  C   UNL     1       5.796   1.601   1.251  0.00  0.00    +0.046 A 
ATOM      8  C   UNL     1       5.373   1.212   2.518  0.00  0.00    +0.004 A 
ATOM      9  C   UNL     1       4.197   0.479   2.668  0.00  0.00    +0.005 A 
ATOM     10  C   UNL     1       3.019   0.137  -0.886  0.00  0.00    +0.197 C 
ATOM     11  O   UNL     1       3.512  -0.119  -2.018  0.00  0.00    -0.287 OA
ATOM     12  C   UNL     1       1.586  -0.050  -0.638  0.00  0.00    +0.047 C 
ATOM     13  C   UNL     1       0.647   0.451  -1.482  0.00  0.00    +0.141 C 
ATOM     14  C   UNL     1      -0.850   0.207  -1.298  0.00  0.00    +0.192 C 
ATOM     15  C   UNL     1      -1.510   1.482  -0.779  0.00  0.00    +0.211 C 
ATOM     16  O   UNL     1      -1.180   2.592  -1.280  0.00  0.00    -0.288 OA
ATOM     17  C   UNL     1      -2.545   1.449   0.289  0.00  0.00    +0.121 C 
ATOM     18  C   UNL     1      -3.045   0.267   0.716  0.00  0.00    +0.127 C 
ATOM     19  C   UNL     1      -2.649  -1.038   0.044  0.00  0.00    +0.132 C 
ATOM     20  C   UNL     1      -1.129  -0.974  -0.324  0.00  0.00    +0.090 C 
ATOM     21  C   UNL     1      -0.228  -0.863   0.932  0.00  0.00    +0.131 C 
ENDROOT
BRANCH  17  22
ATOM     22  C   UNL     1      -2.945   2.725   0.918  0.00  0.00    +0.248 C 
ATOM     23  N   UNL     1      -3.475   3.788   0.126  0.00  0.00    -0.325 N 
ATOM     24  O   UNL     1      -2.795   2.890   2.159  0.00  0.00    -0.270 OA
ATOM     25  H   UNL     1      -3.727   4.699   0.569  0.00  0.00    +0.145 HD
ATOM     26  H   UNL     1      -3.648   3.657  -0.896  0.00  0.00    +0.145 HD
ENDBRANCH  17  22
BRANCH  19  27
ATOM     27  N   UNL     1      -3.508  -1.314  -1.151  0.00  0.00    -0.298 NA
ATOM     28  C   UNL     1      -4.947  -1.201  -0.833  0.00  0.00    +0.105 C 
ATOM     29  C   UNL     1      -3.259  -2.666  -1.694  0.00  0.00    +0.105 C 
ENDBRANCH  19  27
BRANCH   6  30
ATOM     30  O   UNL     1       5.469   1.797  -1.107  0.00  0.00    -0.506 OA
ATOM     31  H   UNL     1       4.915   1.776  -1.951  0.00  0.00    +0.292 HD
ENDBRANCH   6  30
BRANCH  13  32
ATOM     32  O   UNL     1       1.012   1.289  -2.545  0.00  0.00    -0.507 OA
ATOM     33  H   UNL     1       1.946   1.652  -2.686  0.00  0.00    +0.292 HD
ENDBRANCH  13  32
BRANCH  14  34
ATOM     34  O   UNL     1      -1.405  -0.130  -2.550  0.00  0.00    -0.373 OA
ATOM     35  H   UNL     1      -1.368   0.666  -3.143  0.00  0.00    +0.211 HD
ENDBRANCH  14  34
BRANCH  18  36
ATOM     36  O   UNL     1      -3.985   0.189   1.751  0.00  0.00    -0.509 OA
ATOM     37  H   UNL     1      -4.397   0.996   2.200  0.00  0.00    +0.292 HD
ENDBRANCH  18  36
BRANCH  21  38
ATOM     38  O   UNL     1      -0.527  -1.904   1.830  0.00  0.00    -0.391 OA
ATOM     39  H   UNL     1      -1.104  -1.523   2.542  0.00  0.00    +0.210 HD
ENDBRANCH  21  38
TORSDOF 7
