REMARK  Name = 
REMARK  22 active torsions:
REMARK  status: ('A' for Active; 'I' for Inactive)
REMARK    1  A    between atoms: C_1  and  C_2
REMARK    2  A    between atoms: C_2  and  C_3
REMARK    3  A    between atoms: C_3  and  C_4
REMARK    4  A    between atoms: C_4  and  N_5
REMARK    5  A    between atoms: N_5  and  C_6
REMARK    6  A    between atoms: N_5  and  C_10
REMARK    7  A    between atoms: C_6  and  C_7
REMARK    8  A    between atoms: C_7  and  C_8
REMARK    9  A    between atoms: C_8  and  C_9
REMARK   10  A    between atoms: C_10  and  C_11
REMARK   11  A    between atoms: C_11  and  C_12
REMARK   12  A    between atoms: C_12  and  O_13
REMARK   13  A    between atoms: O_13  and  C_14
REMARK   14  A    between atoms: C_17  and  C_20
REMARK   15  A    between atoms: C_20  and  C_22
REMARK   16  A    between atoms: C_23  and  C_24
REMARK   17  A    between atoms: C_24  and  C_25
REMARK   18  A    between atoms: C_25  and  C_26
REMARK   19  A    between atoms: C_26  and  C_27
REMARK   20  A    between atoms: C_32  and  N_33
REMARK   21  A    between atoms: N_33  and  S_34
REMARK   22  A    between atoms: S_34  and  C_35
REMARK                            x       y       z     vdW  Elec       q    Type
REMARK                         _______ _______ _______ _____ _____    ______ ____
ROOT
ATOM      1  C   UNL     1       3.458  -1.847  -1.394  0.00  0.00    +0.197 C 
ATOM      2  O   UNL     1       3.999  -2.268  -2.454  0.00  0.00    -0.287 OA
ENDROOT
BRANCH   1   3
ATOM      3  C   UNL     1       4.310  -1.214  -0.362  0.00  0.00    +0.071 A 
ATOM      4  C   UNL     1       5.597  -1.599   0.030  0.00  0.00    +0.117 A 
ATOM      5  O   UNL     1       6.050  -0.791   0.971  0.00  0.00    -0.459 OA
ATOM      6  C   UNL     1       5.120   0.102   1.212  0.00  0.00    +0.136 A 
ATOM      7  C   UNL     1       4.021  -0.108   0.418  0.00  0.00    +0.033 A 
ATOM      8  C   UNL     1       2.905   0.729   0.474  0.00  0.00    +0.036 A 
ATOM      9  C   UNL     1       2.905   1.784   1.417  0.00  0.00    +0.048 A 
ATOM     10  C   UNL     1       4.051   1.990   2.230  0.00  0.00    +0.028 A 
ATOM     11  C   UNL     1       5.173   1.148   2.126  0.00  0.00    +0.049 A 
BRANCH   9  12
ATOM     12  N   UNL     1       1.781   2.672   1.560  0.00  0.00    -0.221 N 
ATOM     13  H   UNL     1       1.894   3.537   2.130  0.00  0.00    +0.173 HD
BRANCH  12  14
ATOM     14  S   UNL     1       0.197   2.373   0.906  0.00  0.00    +0.040 S 
ATOM     15  C   UNL     1       0.137   2.839  -0.813  0.00  0.00    +0.218 C 
ATOM     16  O   UNL     1      -0.797   3.203   1.665  0.00  0.00    -0.155 OA
ATOM     17  O   UNL     1      -0.175   0.922   1.058  0.00  0.00    -0.155 OA
ENDBRANCH  12  14
ENDBRANCH   9  12
BRANCH   4  18
ATOM     18  C   UNL     1       6.383  -2.765  -0.496  0.00  0.00    +0.075 C 
BRANCH  18  19
ATOM     19  C   UNL     1       7.337  -2.357  -1.631  0.00  0.00    +0.007 C 
BRANCH  19  20
ATOM     20  C   UNL     1       8.524  -1.488  -1.171  0.00  0.00    -0.003 C 
ATOM     21  C   UNL     1       9.501  -2.233  -0.261  0.00  0.00    +0.004 C 
ENDBRANCH  19  20
ENDBRANCH  18  19
ENDBRANCH   4  18
ENDBRANCH   1   3
BRANCH   1  25
ATOM     22  C   UNL     1      -0.789  -2.313  -0.885  0.00  0.00    +0.121 A 
ATOM     23  C   UNL     1      -0.234  -2.229  -2.166  0.00  0.00    +0.046 A 
ATOM     24  C   UNL     1       1.146  -2.080  -2.333  0.00  0.00    +0.015 A 
ATOM     25  C   UNL     1       1.994  -2.009  -1.214  0.00  0.00    +0.023 A 
ATOM     26  C   UNL     1       1.438  -2.130   0.071  0.00  0.00    +0.015 A 
ATOM     27  C   UNL     1       0.058  -2.277   0.236  0.00  0.00    +0.046 A 
BRANCH  22  28
ATOM     28  O   UNL     1      -2.180  -2.422  -0.765  0.00  0.00    -0.492 OA
BRANCH  28  29
ATOM     29  C   UNL     1      -2.884  -2.325   0.470  0.00  0.00    +0.230 C 
BRANCH  29  30
ATOM     30  C   UNL     1      -4.396  -2.280   0.221  0.00  0.00    +0.056 C 
BRANCH  30  31
ATOM     31  C   UNL     1      -4.800  -1.175  -0.772  0.00  0.00    +0.087 C 
BRANCH  31  32
ATOM     32  N   UNL     1      -4.328   0.157  -0.337  0.00  0.00    -0.302 NA
BRANCH  32  33
ATOM     33  C   UNL     1      -4.051   1.112  -1.441  0.00  0.00    +0.084 C 
BRANCH  33  34
ATOM     34  C   UNL     1      -5.105   1.156  -2.581  0.00  0.00    +0.015 C 
BRANCH  34  36
ATOM     35  C   UNL     1      -6.556   3.137  -1.876  0.00  0.00    +0.004 C 
ATOM     36  C   UNL     1      -6.507   1.636  -2.171  0.00  0.00    -0.002 C 
ENDBRANCH  34  36
ENDBRANCH  33  34
ENDBRANCH  32  33
BRANCH  32  37
ATOM     37  C   UNL     1      -5.081   0.739   0.796  0.00  0.00    +0.084 C 
BRANCH  37  38
ATOM     38  C   UNL     1      -4.105   1.113   1.917  0.00  0.00    +0.015 C 
BRANCH  38  39
ATOM     39  C   UNL     1      -4.824   1.800   3.083  0.00  0.00    -0.002 C 
ATOM     40  C   UNL     1      -3.834   2.173   4.186  0.00  0.00    +0.004 C 
ENDBRANCH  38  39
ENDBRANCH  37  38
ENDBRANCH  32  37
ENDBRANCH  31  32
ENDBRANCH  30  31
ENDBRANCH  29  30
ENDBRANCH  28  29
ENDBRANCH  22  28
ENDBRANCH   1  25
TORSDOF 18
