REMARK  Name = 
REMARK  9 active torsions:
REMARK  status: ('A' for Active; 'I' for Inactive)
REMARK    1  A    between atoms: C_3  and  C_4
REMARK    2  A    between atoms: C_8  and  C_9
REMARK    3  A    between atoms: C_8  and  C_10
REMARK    4  A    between atoms: C_14  and  C_15
REMARK    5  A    between atoms: C_15  and  C_16
REMARK    6  A    between atoms: C_16  and  C_17
REMARK    7  A    between atoms: C_17  and  C_18
REMARK    8  A    between atoms: C_18  and  C_19
REMARK    9  A    between atoms: C_21  and  O_22
REMARK                            x       y       z     vdW  Elec       q    Type
REMARK                         _______ _______ _______ _____ _____    ______ ____
ROOT
ATOM      1  C   UNL     1      -2.116  -0.514  -0.274  0.00  0.00    +0.056 C 
ATOM      2  C   UNL     1      -2.360   0.219  -1.576  0.00  0.00    -0.019 C 
ATOM      3  C   UNL     1      -3.599   0.666  -1.852  0.00  0.00    -0.076 C 
ATOM      4  C   UNL     1      -3.849   1.468  -3.099  0.00  0.00    +0.039 C 
ATOM      5  C   UNL     1      -4.734   0.351  -0.895  0.00  0.00    +0.030 C 
ATOM      6  C   UNL     1      -4.322   0.449   0.599  0.00  0.00    +0.012 C 
ATOM      7  C   UNL     1      -2.785   0.339   0.835  0.00  0.00    +0.044 C 
ATOM      8  C   UNL     1      -2.353  -0.114   2.262  0.00  0.00    +0.109 C 
ATOM      9  C   UNL     1      -2.801  -1.552   2.608  0.00  0.00    +0.055 C 
ATOM     10  C   UNL     1      -2.898   0.853   3.327  0.00  0.00    +0.055 C 
ATOM     11  O   UNL     1      -0.925  -0.062   2.322  0.00  0.00    -0.486 OA
ATOM     12  C   UNL     1      -0.105  -0.509   1.278  0.00  0.00    +0.129 A 
ATOM     13  C   UNL     1       1.254  -0.711   1.530  0.00  0.00    +0.049 A 
ATOM     14  C   UNL     1       2.088  -1.254   0.545  0.00  0.00    -0.040 A 
ATOM     15  C   UNL     1       1.546  -1.598  -0.701  0.00  0.00    +0.049 A 
ATOM     16  C   UNL     1       0.188  -1.380  -0.973  0.00  0.00    +0.124 A 
ATOM     17  C   UNL     1      -0.639  -0.771  -0.004  0.00  0.00    +0.043 A 
ENDROOT
BRANCH  16  18
ATOM     18  O   UNL     1      -0.340  -1.782  -2.201  0.00  0.00    -0.506 OA
ATOM     19  H   UNL     1       0.237  -2.210  -2.915  0.00  0.00    +0.292 HD
ENDBRANCH  16  18
BRANCH  14  20
ATOM     20  C   UNL     1       3.555  -1.463   0.825  0.00  0.00    +0.035 C 
BRANCH  20  21
ATOM     21  C   UNL     1       4.361  -0.164   0.663  0.00  0.00    +0.005 C 
BRANCH  21  22
ATOM     22  C   UNL     1       4.466   0.274  -0.808  0.00  0.00    +0.000 C 
BRANCH  22  23
ATOM     23  C   UNL     1       5.247   1.586  -0.981  0.00  0.00    -0.003 C 
ATOM     24  C   UNL     1       6.735   1.438  -0.658  0.00  0.00    +0.004 C 
ENDBRANCH  22  23
ENDBRANCH  21  22
ENDBRANCH  20  21
ENDBRANCH  14  20
TORSDOF 5
