REMARK  Name = 
REMARK  6 active torsions:
REMARK  status: ('A' for Active; 'I' for Inactive)
REMARK    1  A    between atoms: C_5  and  C_8
REMARK    2  A    between atoms: C_8  and  C_10
REMARK    3  A    between atoms: C_10  and  C_11
REMARK    4  A    between atoms: C_11  and  C_12
REMARK    5  A    between atoms: C_12  and  N_13
REMARK    6  A    between atoms: C_16  and  N_19
REMARK                            x       y       z     vdW  Elec       q    Type
REMARK                         _______ _______ _______ _____ _____    ______ ____
ROOT
ATOM      1  N   UNL     1       0.347   1.192   1.331  0.00  0.00    -0.298 NA
ATOM      2  C   UNL     1      -0.554   2.307   0.979  0.00  0.00    +0.091 C 
ATOM      3  C   UNL     1      -1.910   1.799   0.469  0.00  0.00    +0.069 C 
ATOM      4  C   UNL     1      -2.469   0.704   1.343  0.00  0.00    +0.027 C 
ATOM      5  C   UNL     1      -1.682   0.018   2.184  0.00  0.00    +0.010 C 
ATOM      6  C   UNL     1      -0.237   0.379   2.421  0.00  0.00    +0.113 C 
ENDROOT
BRANCH   4   7
ATOM      7  N   UNL     1      -3.866   0.382   1.262  0.00  0.00    -0.265 N 
ATOM      8  C   UNL     1      -4.782   0.446   2.261  0.00  0.00    +0.332 A 
ATOM      9  O   UNL     1      -4.504   0.791   3.441  0.00  0.00    -0.246 OA
ATOM     10  N   UNL     1      -6.034   0.117   1.865  0.00  0.00    -0.306 N 
ATOM     11  C   UNL     1      -5.892  -0.167   0.559  0.00  0.00    +0.067 A 
ATOM     12  C   UNL     1      -6.870  -0.590  -0.338  0.00  0.00    +0.028 A 
ATOM     13  C   UNL     1      -6.470  -0.866  -1.658  0.00  0.00    +0.002 A 
ATOM     14  C   UNL     1      -5.116  -0.725  -2.040  0.00  0.00    +0.002 A 
ATOM     15  C   UNL     1      -4.150  -0.299  -1.109  0.00  0.00    +0.028 A 
ATOM     16  C   UNL     1      -4.582  -0.010   0.188  0.00  0.00    +0.074 A 
ATOM     17  H   UNL     1      -6.905   0.087   2.441  0.00  0.00    +0.170 HD
ENDBRANCH   4   7
BRANCH   1  18
ATOM     18  C   UNL     1       0.730   0.375   0.157  0.00  0.00    +0.085 C 
BRANCH  18  19
ATOM     19  C   UNL     1       2.156  -0.160   0.328  0.00  0.00    +0.023 C 
BRANCH  19  20
ATOM     20  C   UNL     1       2.590  -0.976  -0.896  0.00  0.00    +0.081 C 
BRANCH  20  21
ATOM     21  C   UNL     1       4.003  -1.470  -0.735  0.00  0.00    +0.163 C 
ATOM     22  O   UNL     1       4.172  -2.625  -0.256  0.00  0.00    -0.292 OA
BRANCH  21  27
ATOM     23  F   UNL     1       8.569   1.617  -2.043  0.00  0.00    -0.205 F 
ATOM     24  C   UNL     1       7.472   0.883  -1.732  0.00  0.00    +0.123 A 
ATOM     25  C   UNL     1       6.202   1.456  -1.812  0.00  0.00    +0.039 A 
ATOM     26  C   UNL     1       5.068   0.703  -1.492  0.00  0.00    +0.014 A 
ATOM     27  C   UNL     1       5.192  -0.642  -1.085  0.00  0.00    +0.018 A 
ATOM     28  C   UNL     1       6.482  -1.205  -1.007  0.00  0.00    +0.014 A 
ATOM     29  C   UNL     1       7.612  -0.446  -1.329  0.00  0.00    +0.039 A 
ENDBRANCH  21  27
ENDBRANCH  20  21
ENDBRANCH  19  20
ENDBRANCH  18  19
ENDBRANCH   1  18
TORSDOF 6
