REMARK  Name = 
REMARK  2 active torsions:
REMARK  status: ('A' for Active; 'I' for Inactive)
REMARK    1  A    between atoms: C_15  and  C_16
REMARK    2  A    between atoms: C_20  and  C_21
REMARK                            x       y       z     vdW  Elec       q    Type
REMARK                         _______ _______ _______ _____ _____    ______ ____
ROOT
ATOM      1  C   UNL     1       2.596   1.031  -1.852  0.00  0.00    +0.019 C 
ATOM      2  C   UNL     1       2.127   2.408  -1.414  0.00  0.00    +0.012 C 
ATOM      3  C   UNL     1       1.106   1.297  -1.661  0.00  0.00    +0.000 C 
ATOM      4  C   UNL     1       0.431   0.718  -0.397  0.00  0.00    +0.001 C 
ATOM      5  C   UNL     1      -1.070   0.483  -0.653  0.00  0.00    +0.006 C 
ATOM      6  C   UNL     1      -1.905   1.585  -1.312  0.00  0.00    +0.000 C 
ATOM      7  C   UNL     1      -2.691   2.598  -0.497  0.00  0.00    +0.012 C 
ATOM      8  C   UNL     1      -3.332   1.265  -0.887  0.00  0.00    +0.037 C 
ATOM      9  C   UNL     1      -3.314   0.064   0.105  0.00  0.00    +0.123 C 
ATOM     10  C   UNL     1      -3.953  -1.174  -0.597  0.00  0.00    +0.060 C 
ATOM     11  C   UNL     1      -5.442  -1.119  -0.239  0.00  0.00    +0.124 C 
ATOM     12  C   UNL     1      -5.427  -0.274   0.971  0.00  0.00    +0.308 C 
ATOM     13  O   UNL     1      -6.412  -0.114   1.737  0.00  0.00    -0.251 OA
ATOM     14  O   UNL     1      -4.211   0.342   1.173  0.00  0.00    -0.457 OA
ATOM     15  C   UNL     1      -1.824  -0.095   0.569  0.00  0.00    +0.011 C 
ATOM     16  C   UNL     1      -1.629   0.648   1.942  0.00  0.00    +0.015 C 
ATOM     17  C   UNL     1      -1.248  -1.527   0.749  0.00  0.00    +0.011 C 
ATOM     18  C   UNL     1       0.273  -1.473   1.044  0.00  0.00    +0.005 C 
ATOM     19  C   UNL     1       1.093  -0.652  -0.012  0.00  0.00    +0.003 C 
ATOM     20  C   UNL     1       2.614  -0.479   0.354  0.00  0.00    -0.007 C 
ATOM     21  C   UNL     1       2.804   0.345   1.658  0.00  0.00    +0.016 C 
ATOM     22  C   UNL     1       3.277  -1.880   0.541  0.00  0.00    +0.019 C 
ATOM     23  C   UNL     1       4.795  -1.798   0.780  0.00  0.00    +0.080 C 
ATOM     24  C   UNL     1       5.456  -0.829  -0.155  0.00  0.00    +0.156 C 
ATOM     25  O   UNL     1       6.711  -0.829  -0.261  0.00  0.00    -0.293 OA
ATOM     26  C   UNL     1       4.663   0.119  -0.952  0.00  0.00    +0.046 C 
ATOM     27  C   UNL     1       3.334   0.240  -0.794  0.00  0.00    -0.057 C 
ENDROOT
TORSDOF 0
