REMARK  Name = 
REMARK  4 active torsions:
REMARK  status: ('A' for Active; 'I' for Inactive)
REMARK    1  A    between atoms: C_4  and  O_5
REMARK    2  A    between atoms: C_6  and  C_7
REMARK    3  A    between atoms: C_18  and  C_19
REMARK    4  A    between atoms: C_21  and  C_22
REMARK                            x       y       z     vdW  Elec       q    Type
REMARK                         _______ _______ _______ _____ _____    ______ ____
ROOT
ATOM      1  C   UNL     1      -2.133  -0.101  -0.961  0.00  0.00    +0.001 C 
ATOM      2  C   UNL     1      -3.248   0.653  -1.676  0.00  0.00    +0.007 C 
ATOM      3  C   UNL     1      -4.503  -0.197  -1.407  0.00  0.00    +0.032 C 
ATOM      4  C   UNL     1      -4.100  -1.267  -0.367  0.00  0.00    +0.121 C 
ATOM      5  C   UNL     1      -2.810  -0.715   0.271  0.00  0.00    -0.003 C 
ATOM      6  C   UNL     1      -3.176   0.325   1.380  0.00  0.00    +0.014 C 
ATOM      7  C   UNL     1      -1.864  -1.792   0.844  0.00  0.00    +0.010 C 
ATOM      8  C   UNL     1      -0.482  -1.193   1.201  0.00  0.00    +0.005 C 
ATOM      9  C   UNL     1       0.169  -0.397   0.022  0.00  0.00    -0.001 C 
ATOM     10  C   UNL     1      -0.826   0.639  -0.612  0.00  0.00    -0.004 C 
ATOM     11  C   UNL     1      -0.208   1.285  -1.867  0.00  0.00    +0.004 C 
ATOM     12  C   UNL     1       1.143   1.934  -1.553  0.00  0.00    +0.005 C 
ATOM     13  C   UNL     1       2.116   0.902  -0.956  0.00  0.00    +0.002 C 
ATOM     14  C   UNL     1       3.525   1.500  -0.799  0.00  0.00    +0.078 C 
ATOM     15  C   UNL     1       4.464   0.481  -0.219  0.00  0.00    +0.136 C 
ATOM     16  O   UNL     1       5.607   0.409  -0.649  0.00  0.00    -0.297 OA
ATOM     17  C   UNL     1       4.031  -0.349   0.973  0.00  0.00    +0.053 C 
ATOM     18  C   UNL     1       4.973  -1.537   1.219  0.00  0.00    +0.015 C 
ATOM     19  C   UNL     1       2.579  -0.855   0.798  0.00  0.00    +0.018 C 
ATOM     20  C   UNL     1       1.567   0.254   0.364  0.00  0.00    -0.025 C 
ATOM     21  C   UNL     1       1.432   1.293   1.518  0.00  0.00    +0.012 C 
ENDROOT
BRANCH   4  22
ATOM     22  O   UNL     1      -5.116  -1.479   0.580  0.00  0.00    -0.391 OA
ATOM     23  H   UNL     1      -5.848  -1.953   0.105  0.00  0.00    +0.210 HD
ENDBRANCH   4  22
TORSDOF 1
