REMARK  Name = 
REMARK  13 active torsions:
REMARK  status: ('A' for Active; 'I' for Inactive)
REMARK    1  A    between atoms: C_1  and  C_2
REMARK    2  A    between atoms: C_2  and  O_3
REMARK    3  A    between atoms: O_3  and  C_4
REMARK    4  A    between atoms: C_5  and  O_6
REMARK    5  A    between atoms: O_6  and  C_7
REMARK    6  A    between atoms: C_7  and  C_8
REMARK    7  A    between atoms: C_10  and  C_11
REMARK    8  A    between atoms: C_18  and  O_19
REMARK    9  A    between atoms: O_19  and  C_20
REMARK   10  A    between atoms: C_20  and  C_21
REMARK   11  A    between atoms: C_22  and  O_23
REMARK   12  A    between atoms: O_23  and  C_24
REMARK   13  A    between atoms: C_24  and  C_25
REMARK                            x       y       z     vdW  Elec       q    Type
REMARK                         _______ _______ _______ _____ _____    ______ ____
ROOT
ATOM      1  C   UNL     1       0.413   0.273   0.042  0.00  0.00    +0.031 C 
ATOM      2  C   UNL     1      -0.460  -0.610   0.573  0.00  0.00    +0.035 C 
ATOM      3  N   UNL     1       0.012  -1.766   1.292  0.00  0.00    -0.343 N 
ATOM      4  C   UNL     1      -0.932  -2.759   1.791  0.00  0.00    +0.106 C 
ATOM      5  C   UNL     1      -2.127  -2.058   2.438  0.00  0.00    +0.054 C 
ATOM      6  C   UNL     1      -2.745  -1.073   1.474  0.00  0.00    -0.033 A 
ATOM      7  C   UNL     1      -4.125  -0.836   1.519  0.00  0.00    +0.053 A 
ATOM      8  C   UNL     1      -4.729   0.069   0.628  0.00  0.00    +0.162 A 
ATOM      9  C   UNL     1      -3.940   0.745  -0.312  0.00  0.00    +0.163 A 
ATOM     10  C   UNL     1      -2.549   0.528  -0.341  0.00  0.00    +0.059 A 
ATOM     11  C   UNL     1      -1.935  -0.355   0.569  0.00  0.00    +0.003 A 
ATOM     12  H   UNL     1       1.006  -1.838   1.604  0.00  0.00    +0.146 HD
ENDROOT
BRANCH   1  16
ATOM     13  C   UNL     1       4.650  -0.313  -0.374  0.00  0.00    +0.162 A 
ATOM     14  C   UNL     1       4.147   0.907   0.103  0.00  0.00    +0.162 A 
ATOM     15  C   UNL     1       2.756   1.083   0.241  0.00  0.00    +0.057 A 
ATOM     16  C   UNL     1       1.870   0.043  -0.072  0.00  0.00    -0.020 A 
ATOM     17  C   UNL     1       2.379  -1.164  -0.573  0.00  0.00    +0.012 A 
ATOM     18  C   UNL     1       3.756  -1.347  -0.712  0.00  0.00    +0.050 A 
BRANCH  13  19
ATOM     19  O   UNL     1       6.044  -0.453  -0.493  0.00  0.00    -0.489 OA
BRANCH  19  21
ATOM     20  C   UNL     1       6.629  -1.547  -2.583  0.00  0.00    +0.048 C 
ATOM     21  C   UNL     1       6.724  -1.572  -1.061  0.00  0.00    +0.226 C 
ENDBRANCH  19  21
ENDBRANCH  13  19
BRANCH  14  22
ATOM     22  O   UNL     1       5.061   1.923   0.426  0.00  0.00    -0.489 OA
BRANCH  22  23
ATOM     23  C   UNL     1       4.700   3.211   0.917  0.00  0.00    +0.226 C 
ATOM     24  C   UNL     1       5.956   4.034   1.153  0.00  0.00    +0.048 C 
ENDBRANCH  22  23
ENDBRANCH  14  22
ENDBRANCH   1  16
BRANCH   8  25
ATOM     25  O   UNL     1      -6.111   0.330   0.640  0.00  0.00    -0.489 OA
BRANCH  25  26
ATOM     26  C   UNL     1      -7.083  -0.348   1.436  0.00  0.00    +0.226 C 
ATOM     27  C   UNL     1      -7.373  -1.735   0.872  0.00  0.00    +0.048 C 
ENDBRANCH  25  26
ENDBRANCH   8  25
BRANCH   9  28
ATOM     28  O   UNL     1      -4.584   1.629  -1.196  0.00  0.00    -0.489 OA
BRANCH  28  29
ATOM     29  C   UNL     1      -3.973   2.314  -2.289  0.00  0.00    +0.226 C 
ATOM     30  C   UNL     1      -3.737   1.365  -3.459  0.00  0.00    +0.048 C 
ENDBRANCH  28  29
ENDBRANCH   9  28
TORSDOF 9
