REMARK  Name = 
REMARK  8 active torsions:
REMARK  status: ('A' for Active; 'I' for Inactive)
REMARK    1  A    between atoms: N_1  and  CA_2
REMARK    2  A    between atoms: CA_2  and  C_3
REMARK    3  A    between atoms: CA_2  and  C_13
REMARK    4  A    between atoms: C_3  and  O_4
REMARK    5  A    between atoms: C_3  and  C_5
REMARK    6  A    between atoms: C_7  and  O_8
REMARK    7  A    between atoms: C_9  and  O_10
REMARK    8  A    between atoms: C_13  and  O_14
REMARK                            x       y       z     vdW  Elec       q    Type
REMARK                         _______ _______ _______ _____ _____    ______ ____
ROOT
ATOM      1  C   UNL     1      -1.159  -1.064   0.101  0.00  0.00    +0.172 C 
ENDROOT
BRANCH   1   2
ATOM      2  C   UNL     1       0.263  -0.536   0.081  0.00  0.00    -0.013 A 
ATOM      3  C   UNL     1       0.776   0.159   1.189  0.00  0.00    +0.055 A 
ATOM      4  C   UNL     1       2.077   0.674   1.167  0.00  0.00    +0.159 A 
ATOM      5  C   UNL     1       2.879   0.500   0.027  0.00  0.00    +0.158 A 
ATOM      6  C   UNL     1       2.368  -0.186  -1.083  0.00  0.00    +0.049 A 
ATOM      7  C   UNL     1       1.068  -0.698  -1.059  0.00  0.00    +0.010 A 
BRANCH   4   8
ATOM      8  O   UNL     1       2.554   1.356   2.286  0.00  0.00    -0.503 OA
ATOM      9  H   UNL     1       3.487   1.748   2.320  0.00  0.00    +0.292 HD
ENDBRANCH   4   8
BRANCH   5  10
ATOM     10  O   UNL     1       4.176   1.009  -0.001  0.00  0.00    -0.503 OA
ATOM     11  H   UNL     1       4.773   0.897  -0.812  0.00  0.00    +0.292 HD
ENDBRANCH   5  10
ENDBRANCH   1   2
BRANCH   1  12
ATOM     12  O   UNL     1      -1.179  -2.389  -0.367  0.00  0.00    -0.385 OA
ATOM     13  H   UNL     1      -0.779  -2.951   0.347  0.00  0.00    +0.210 HD
ENDBRANCH   1  12
BRANCH   1  14
ATOM     14  CA  UNL     1      -2.090  -0.190  -0.777  0.00  0.00    +0.194 C 
BRANCH  14  15
ATOM     15  N   UNL     1      -3.457  -0.717  -0.795  0.00  0.00    -0.316 NA
ATOM     16  H1  UNL     1      -3.462  -1.635  -1.296  0.00  0.00    +0.119 HD
ATOM     17  H2  UNL     1      -3.780  -0.893   0.185  0.00  0.00    +0.119 HD
ENDBRANCH  14  15
BRANCH  14  18
ATOM     18  C   UNL     1      -2.121   1.232  -0.287  0.00  0.00    +0.325 C 
ATOM     19  OXT UNL     1      -1.660   2.158  -1.007  0.00  0.00    -0.249 OA
BRANCH  18  20
ATOM     20  O   UNL     1      -2.645   1.526   0.969  0.00  0.00    -0.479 OA
ATOM     21  H   UNL     1      -2.663   2.479   1.313  0.00  0.00    +0.295 HD
ENDBRANCH  18  20
ENDBRANCH  14  18
ENDBRANCH   1  14
TORSDOF 8
