REMARK  Name = 
REMARK  7 active torsions:
REMARK  status: ('A' for Active; 'I' for Inactive)
REMARK    1  A    between atoms: C_1  and  N_2
REMARK    2  A    between atoms: N_2  and  C_3
REMARK    3  A    between atoms: C_3  and  C_4
REMARK    4  A    between atoms: C_4  and  C_5
REMARK    5  A    between atoms: C_5  and  O_6
REMARK    6  A    between atoms: C_5  and  C_17
REMARK    7  A    between atoms: O_6  and  C_7
REMARK                            x       y       z     vdW  Elec       q    Type
REMARK                         _______ _______ _______ _____ _____    ______ ____
ROOT
ATOM      1  C   UNL     1       1.408   0.296   0.513  0.00  0.00    +0.211 C 
ENDROOT
BRANCH   1   2
ATOM      2  C   UNL     1       1.485   1.758   0.883  0.00  0.00    +0.030 A 
ATOM      3  C   UNL     1       2.595   2.585   0.714  0.00  0.00    +0.015 A 
ATOM      4  C   UNL     1       2.418   3.871   1.239  0.00  0.00    +0.008 A 
ATOM      5  C   UNL     1       1.178   4.067   1.837  0.00  0.00    +0.045 A 
ATOM      6  S   UNL     1       0.313   2.629   1.732  0.00  0.00    -0.098 S 
ENDBRANCH   1   2
BRANCH   1   7
ATOM      7  C   UNL     1       2.030  -0.016  -0.870  0.00  0.00    +0.065 C 
BRANCH   7   8
ATOM      8  C   UNL     1       1.811  -1.468  -1.350  0.00  0.00    +0.084 C 
BRANCH   8  10
ATOM      9  C   UNL     1       3.761  -2.408  -0.213  0.00  0.00    +0.101 C 
ATOM     10  N   UNL     1       2.314  -2.495  -0.422  0.00  0.00    -0.319 NA
ATOM     11  H   UNL     1       1.824  -2.420   0.498  0.00  0.00    +0.122 HD
ENDBRANCH   8  10
ENDBRANCH   7   8
ENDBRANCH   1   7
BRANCH   1  12
ATOM     12  O   UNL     1       0.075  -0.224   0.630  0.00  0.00    -0.483 OA
BRANCH  12  13
ATOM     13  C   UNL     1      -1.067   0.132  -0.122  0.00  0.00    +0.129 A 
ATOM     14  C   UNL     1      -1.080   1.228  -1.010  0.00  0.00    +0.046 A 
ATOM     15  C   UNL     1      -2.236   1.555  -1.720  0.00  0.00    +0.004 A 
ATOM     16  C   UNL     1      -3.401   0.803  -1.559  0.00  0.00    +0.009 A 
ATOM     17  C   UNL     1      -3.416  -0.292  -0.687  0.00  0.00    -0.014 A 
ATOM     18  C   UNL     1      -4.587  -1.051  -0.525  0.00  0.00    +0.008 A 
ATOM     19  C   UNL     1      -4.598  -2.152   0.333  0.00  0.00    +0.001 A 
ATOM     20  C   UNL     1      -3.445  -2.502   1.038  0.00  0.00    +0.001 A 
ATOM     21  C   UNL     1      -2.275  -1.751   0.895  0.00  0.00    +0.012 A 
ATOM     22  C   UNL     1      -2.244  -0.636   0.035  0.00  0.00    +0.024 A 
ENDBRANCH  12  13
ENDBRANCH   1  12
TORSDOF 6
