REMARK  Name = 
REMARK  6 active torsions:
REMARK  status: ('A' for Active; 'I' for Inactive)
REMARK    1  A    between atoms: C_1  and  C_21
REMARK    2  A    between atoms: C_14  and  C_15
REMARK    3  A    between atoms: C_19  and  C_20
REMARK    4  A    between atoms: N_23  and  C_24
REMARK    5  A    between atoms: C_26  and  C_34
REMARK    6  A    between atoms: C_29  and  C_30
REMARK                            x       y       z     vdW  Elec       q    Type
REMARK                         _______ _______ _______ _____ _____    ______ ____
ROOT
ATOM      1  C   UNL     1       1.184   0.692   1.168  0.00  0.00    +0.081 C 
ATOM      2  C   UNL     1       1.182   2.135   0.603  0.00  0.00    +0.013 C 
ATOM      3  C   UNL     1      -0.230   2.390   0.045  0.00  0.00    +0.005 C 
ATOM      4  C   UNL     1      -1.022   1.157   0.462  0.00  0.00    -0.001 C 
ATOM      5  C   UNL     1      -2.332   0.817  -0.280  0.00  0.00    -0.003 C 
ATOM      6  C   UNL     1      -3.293   2.023  -0.292  0.00  0.00    +0.006 C 
ATOM      7  C   UNL     1      -4.633   1.663  -0.942  0.00  0.00    +0.023 C 
ATOM      8  C   UNL     1      -5.270   0.479  -0.202  0.00  0.00    +0.083 C 
ATOM      9  N   UNL     1      -6.603   0.161  -0.718  0.00  0.00    -0.308 N 
ATOM     10  C   UNL     1      -7.240  -1.025  -0.234  0.00  0.00    +0.237 C 
ATOM     11  O   UNL     1      -8.459  -1.237  -0.466  0.00  0.00    -0.271 OA
ATOM     12  C   UNL     1      -6.445  -1.993   0.541  0.00  0.00    +0.063 C 
ATOM     13  C   UNL     1      -5.111  -1.858   0.617  0.00  0.00    -0.013 C 
ATOM     14  C   UNL     1      -4.371  -0.800  -0.206  0.00  0.00    +0.008 C 
ATOM     15  C   UNL     1      -4.204  -1.371  -1.643  0.00  0.00    +0.017 C 
ATOM     16  C   UNL     1      -2.984  -0.422   0.434  0.00  0.00    +0.004 C 
ATOM     17  C   UNL     1      -1.974  -1.610   0.543  0.00  0.00    +0.005 C 
ATOM     18  C   UNL     1      -0.623  -1.195   1.175  0.00  0.00    +0.008 C 
ATOM     19  C   UNL     1       0.001   0.010   0.433  0.00  0.00    -0.018 C 
ATOM     20  C   UNL     1       0.430  -0.408  -1.014  0.00  0.00    +0.012 C 
ATOM     21  H   UNL     1      -7.095   0.788  -1.394  0.00  0.00    +0.149 HD
ENDROOT
BRANCH   1  22
ATOM     22  C   UNL     1       2.525  -0.009   1.061  0.00  0.00    +0.221 C 
ATOM     23  O   UNL     1       2.571  -1.269   1.093  0.00  0.00    -0.275 OA
ATOM     24  N   UNL     1       3.749   0.744   1.075  0.00  0.00    -0.285 N 
ATOM     25  H   UNL     1       3.725   1.722   1.437  0.00  0.00    +0.155 HD
BRANCH  24  26
ATOM     26  C   UNL     1       5.010   0.188   0.660  0.00  0.00    +0.046 A 
ATOM     27  C   UNL     1       5.062  -0.645  -0.472  0.00  0.00    +0.036 A 
ATOM     28  C   UNL     1       6.278  -1.175  -0.927  0.00  0.00    +0.057 A 
ATOM     29  C   UNL     1       7.464  -0.814  -0.272  0.00  0.00    +0.013 A 
ATOM     30  C   UNL     1       7.430   0.018   0.848  0.00  0.00    +0.015 A 
ATOM     31  C   UNL     1       6.209   0.515   1.342  0.00  0.00    +0.076 A 
BRANCH  31  32
ATOM     32  C   UNL     1       6.199   1.412   2.563  0.00  0.00    +0.419 C 
ATOM     33  F   UNL     1       5.214   1.005   3.445  0.00  0.00    -0.166 F 
ATOM     34  F   UNL     1       5.954   2.716   2.173  0.00  0.00    -0.166 F 
ATOM     35  F   UNL     1       7.410   1.375   3.233  0.00  0.00    -0.166 F 
ENDBRANCH  31  32
BRANCH  28  36
ATOM     36  C   UNL     1       6.321  -2.027  -2.171  0.00  0.00    +0.417 C 
ATOM     37  F   UNL     1       6.437  -1.209  -3.279  0.00  0.00    -0.166 F 
ATOM     38  F   UNL     1       5.164  -2.780  -2.285  0.00  0.00    -0.166 F 
ATOM     39  F   UNL     1       7.399  -2.894  -2.135  0.00  0.00    -0.166 F 
ENDBRANCH  28  36
ENDBRANCH  24  26
ENDBRANCH   1  22
TORSDOF 4
