REMARK  Name = 
REMARK  9 active torsions:
REMARK  status: ('A' for Active; 'I' for Inactive)
REMARK    1  A    between atoms: C_1  and  C_2
REMARK    2  A    between atoms: C_2  and  C_3
REMARK    3  A    between atoms: C_3  and  C_4
REMARK    4  A    between atoms: C_4  and  O_5
REMARK    5  A    between atoms: O_5  and  C_6
REMARK    6  A    between atoms: C_9  and  C_12
REMARK    7  A    between atoms: C_12  and  C_14
REMARK    8  A    between atoms: C_14  and  C_15
REMARK    9  A    between atoms: C_15  and  N_16
REMARK                            x       y       z     vdW  Elec       q    Type
REMARK                         _______ _______ _______ _____ _____    ______ ____
ROOT
ATOM      1  C   UNL     1       2.463   0.638   0.405  0.00  0.00    +0.121 A 
ATOM      2  C   UNL     1       1.606   1.734   0.546  0.00  0.00    +0.046 A 
ATOM      3  C   UNL     1       0.325   1.571   1.081  0.00  0.00    +0.015 A 
ATOM      4  C   UNL     1      -0.128   0.301   1.479  0.00  0.00    +0.018 A 
ATOM      5  C   UNL     1       0.737  -0.801   1.339  0.00  0.00    +0.015 A 
ATOM      6  C   UNL     1       2.018  -0.635   0.807  0.00  0.00    +0.046 A 
ENDROOT
BRANCH   4   7
ATOM      7  C   UNL     1      -1.489   0.146   2.051  0.00  0.00    +0.164 C 
ATOM      8  O   UNL     1      -2.055   1.149   2.567  0.00  0.00    -0.292 OA
BRANCH   7   9
ATOM      9  C   UNL     1      -2.189  -1.193   2.077  0.00  0.00    +0.095 C 
BRANCH   9  10
ATOM     10  C   UNL     1      -3.720  -1.067   2.054  0.00  0.00    +0.092 C 
BRANCH  10  11
ATOM     11  N   UNL     1      -4.170  -0.278   0.886  0.00  0.00    -0.302 NA
ATOM     12  C   UNL     1      -5.445   0.415   1.184  0.00  0.00    +0.084 C 
ATOM     13  C   UNL     1      -6.096   1.031  -0.076  0.00  0.00    +0.015 C 
ATOM     14  C   UNL     1      -5.098   1.136  -1.232  0.00  0.00    +0.002 C 
ATOM     15  C   UNL     1      -4.498  -0.239  -1.568  0.00  0.00    +0.015 C 
ATOM     16  C   UNL     1      -4.309  -1.120  -0.319  0.00  0.00    +0.084 C 
ENDBRANCH  10  11
ENDBRANCH   9  10
ENDBRANCH   7   9
ENDBRANCH   4   7
BRANCH   1  17
ATOM     17  O   UNL     1       3.741   0.855  -0.131  0.00  0.00    -0.492 OA
BRANCH  17  18
ATOM     18  C   UNL     1       4.722  -0.162  -0.311  0.00  0.00    +0.229 C 
BRANCH  18  19
ATOM     19  C   UNL     1       5.990   0.456  -0.898  0.00  0.00    +0.041 C 
BRANCH  19  21
ATOM     20  C   UNL     1       8.345   0.011  -1.690  0.00  0.00    +0.004 C 
ATOM     21  C   UNL     1       7.083  -0.602  -1.089  0.00  0.00    -0.000 C 
ENDBRANCH  19  21
ENDBRANCH  18  19
ENDBRANCH  17  18
ENDBRANCH   1  17
TORSDOF 8
