REMARK  Name = 
REMARK  4 active torsions:
REMARK  status: ('A' for Active; 'I' for Inactive)
REMARK    1  A    between atoms: C_4  and  C_5
REMARK    2  A    between atoms: C_5  and  C_6
REMARK    3  A    between atoms: C_8  and  C_9
REMARK    4  A    between atoms: C_22  and  C_23
REMARK                            x       y       z     vdW  Elec       q    Type
REMARK                         _______ _______ _______ _____ _____    ______ ____
ROOT
ATOM      1  C   UNL     1       0.969   0.631  -0.630  0.00  0.00    +0.003 C 
ATOM      2  C   UNL     1       1.948   1.413  -1.505  0.00  0.00    +0.005 C 
ATOM      3  C   UNL     1       3.225   1.522  -0.651  0.00  0.00    +0.012 C 
ATOM      4  C   UNL     1       3.001   0.604   0.575  0.00  0.00    +0.061 C 
ATOM      5  C   UNL     1       1.851  -0.343   0.157  0.00  0.00    -0.019 C 
ATOM      6  C   UNL     1       2.395  -1.528  -0.703  0.00  0.00    +0.012 C 
ATOM      7  C   UNL     1       1.009  -0.875   1.331  0.00  0.00    +0.008 C 
ATOM      8  C   UNL     1      -0.265  -1.600   0.836  0.00  0.00    +0.005 C 
ATOM      9  C   UNL     1      -1.118  -0.851  -0.258  0.00  0.00    +0.006 C 
ATOM     10  C   UNL     1      -0.240  -0.054  -1.300  0.00  0.00    +0.019 C 
ATOM     11  C   UNL     1      -1.013   0.942  -2.125  0.00  0.00    -0.023 C 
ATOM     12  C   UNL     1      -2.293   1.240  -1.930  0.00  0.00    +0.000 C 
ATOM     13  C   UNL     1      -3.090   0.633  -0.851  0.00  0.00    -0.038 C 
ATOM     14  C   UNL     1      -4.421   0.829  -0.866  0.00  0.00    +0.050 C 
ATOM     15  C   UNL     1      -5.305   0.272   0.165  0.00  0.00    +0.156 C 
ATOM     16  O   UNL     1      -6.541   0.504   0.114  0.00  0.00    -0.293 OA
ATOM     17  C   UNL     1      -4.750  -0.532   1.296  0.00  0.00    +0.080 C 
ATOM     18  C   UNL     1      -3.383  -1.126   0.935  0.00  0.00    +0.019 C 
ATOM     19  C   UNL     1      -2.389  -0.088   0.302  0.00  0.00    -0.003 C 
ATOM     20  C   UNL     1      -2.011   0.970   1.364  0.00  0.00    +0.016 C 
ENDROOT
BRANCH   4  21
ATOM     21  C   UNL     1       4.242  -0.067   1.148  0.00  0.00    +0.134 C 
ATOM     22  C   UNL     1       5.368  -0.612   0.311  0.00  0.00    +0.086 C 
ATOM     23  O   UNL     1       4.323  -0.193   2.361  0.00  0.00    -0.297 OA
ENDBRANCH   4  21
TORSDOF 1
