REMARK  Name = 
REMARK  7 active torsions:
REMARK  status: ('A' for Active; 'I' for Inactive)
REMARK    1  A    between atoms: C_1  and  N_2
REMARK    2  A    between atoms: N_5  and  C_6
REMARK    3  A    between atoms: C_6  and  C_7
REMARK    4  A    between atoms: C_7  and  O_8
REMARK    5  A    between atoms: C_7  and  C_9
REMARK    6  A    between atoms: C_9  and  O_10
REMARK    7  A    between atoms: N_15  and  C_16
REMARK                            x       y       z     vdW  Elec       q    Type
REMARK                         _______ _______ _______ _____ _____    ______ ____
ROOT
ATOM      1  C   UNL     1      -3.622   2.123  -0.384  0.00  0.00    +0.155 C 
ATOM      2  N   UNL     1      -2.666   1.016  -0.246  0.00  0.00    -0.280 N 
ATOM      3  C   UNL     1      -1.384   1.248   0.147  0.00  0.00    +0.168 A 
ATOM      4  C   UNL     1      -0.488   0.249   0.331  0.00  0.00    +0.152 A 
ATOM      5  N   UNL     1       0.684   0.786   0.724  0.00  0.00    -0.322 N 
ATOM      6  C   UNL     1       0.446   2.121   0.748  0.00  0.00    +0.202 A 
ATOM      7  N   UNL     1      -0.825   2.447   0.404  0.00  0.00    -0.218 NA
ATOM      8  C   UNL     1      -0.862  -1.074   0.117  0.00  0.00    +0.282 A 
ATOM      9  O   UNL     1      -0.039  -2.013   0.298  0.00  0.00    -0.265 OA
ATOM     10  N   UNL     1      -2.152  -1.330  -0.287  0.00  0.00    -0.262 N 
ATOM     11  C   UNL     1      -2.595  -2.721  -0.485  0.00  0.00    +0.157 C 
ATOM     12  C   UNL     1      -3.057  -0.292  -0.434  0.00  0.00    +0.333 A 
ATOM     13  O   UNL     1      -4.257  -0.543  -0.739  0.00  0.00    -0.246 OA
ENDROOT
BRANCH   5  14
ATOM     14  C   UNL     1       1.971   0.139   0.988  0.00  0.00    +0.157 C 
BRANCH  14  15
ATOM     15  C   UNL     1       2.813   0.064  -0.295  0.00  0.00    +0.159 C 
BRANCH  15  16
ATOM     16  O   UNL     1       2.112  -0.665  -1.270  0.00  0.00    -0.388 OA
ATOM     17  H   UNL     1       2.503  -0.420  -2.150  0.00  0.00    +0.210 HD
ENDBRANCH  15  16
BRANCH  15  18
ATOM     18  C   UNL     1       4.169  -0.610  -0.034  0.00  0.00    +0.188 C 
BRANCH  18  19
ATOM     19  O   UNL     1       4.960   0.180   0.815  0.00  0.00    -0.392 OA
ATOM     20  H   UNL     1       4.804  -0.142   1.740  0.00  0.00    +0.210 HD
ENDBRANCH  18  19
ENDBRANCH  15  18
ENDBRANCH  14  15
ENDBRANCH   5  14
TORSDOF 5
