REMARK  Name = 
REMARK  9 active torsions:
REMARK  status: ('A' for Active; 'I' for Inactive)
REMARK    1  A    between atoms: C_6  and  C_7
REMARK    2  A    between atoms: C_7  and  C_8
REMARK    3  A    between atoms: C_7  and  C_9
REMARK    4  A    between atoms: C_10  and  S_23
REMARK    5  A    between atoms: C_13  and  C_14
REMARK    6  A    between atoms: C_18  and  C_19
REMARK    7  A    between atoms: C_18  and  C_20
REMARK    8  A    between atoms: C_20  and  O_21
REMARK    9  A    between atoms: S_23  and  O_24
REMARK                            x       y       z     vdW  Elec       q    Type
REMARK                         _______ _______ _______ _____ _____    ______ ____
ROOT
ATOM      1  C   UNL     1      -2.040   0.738   0.201  0.00  0.00    +0.016 C 
ATOM      2  C   UNL     1      -1.500   1.932  -0.609  0.00  0.00    +0.010 C 
ATOM      3  C   UNL     1      -0.028   2.169  -0.286  0.00  0.00    +0.036 C 
ATOM      4  C   UNL     1       0.798   0.905  -0.292  0.00  0.00    -0.043 A 
ATOM      5  C   UNL     1       2.192   1.045  -0.334  0.00  0.00    +0.009 A 
ATOM      6  C   UNL     1       3.053  -0.067  -0.294  0.00  0.00    -0.017 A 
ATOM      7  C   UNL     1       2.482  -1.361  -0.200  0.00  0.00    +0.121 A 
ATOM      8  C   UNL     1       1.087  -1.498  -0.145  0.00  0.00    +0.034 A 
ATOM      9  C   UNL     1       0.224  -0.382  -0.157  0.00  0.00    -0.036 A 
ATOM     10  C   UNL     1      -1.304  -0.600  -0.168  0.00  0.00    -0.003 C 
ATOM     11  C   UNL     1      -1.655  -1.113  -1.591  0.00  0.00    +0.016 C 
ATOM     12  C   UNL     1      -1.700  -1.694   0.888  0.00  0.00    +0.011 C 
ATOM     13  C   UNL     1      -3.058  -1.478   1.588  0.00  0.00    +0.002 C 
ATOM     14  C   UNL     1      -4.083  -0.769   0.696  0.00  0.00    +0.018 C 
ATOM     15  C   UNL     1      -3.618   0.655   0.251  0.00  0.00    +0.068 C 
ATOM     16  C   UNL     1      -4.287   0.974  -1.116  0.00  0.00    +0.023 C 
ENDROOT
BRANCH   6  17
ATOM     17  C   UNL     1       4.561   0.171  -0.348  0.00  0.00    +0.015 C 
ATOM     18  C   UNL     1       4.968   0.873  -1.651  0.00  0.00    +0.012 C 
ATOM     19  C   UNL     1       5.039   0.959   0.877  0.00  0.00    +0.012 C 
ENDBRANCH   6  17
BRANCH   7  20
ATOM     20  S   UNL     1       3.466  -2.837  -0.148  0.00  0.00    +0.110 S 
ATOM     21  O   UNL     1       4.255  -2.955  -1.421  0.00  0.00    -0.142 OA
ATOM     22  O   UNL     1       2.596  -4.056  -0.011  0.00  0.00    -0.142 OA
BRANCH  20  23
ATOM     23  O   UNL     1       4.514  -2.777   1.165  0.00  0.00    -0.250 OA
ATOM     24  H   UNL     1       3.928  -2.667   1.956  0.00  0.00    +0.245 HD
ENDBRANCH  20  23
ENDBRANCH   7  20
BRANCH  15  25
ATOM     25  C   UNL     1      -4.114   1.675   1.276  0.00  0.00    +0.311 C 
ATOM     26  O   UNL     1      -4.489   2.825   0.916  0.00  0.00    -0.250 OA
BRANCH  25  27
ATOM     27  O   UNL     1      -4.087   1.372   2.636  0.00  0.00    -0.480 OA
ATOM     28  H   UNL     1      -4.388   2.049   3.326  0.00  0.00    +0.295 HD
ENDBRANCH  25  27
ENDBRANCH  15  25
TORSDOF 5
