REMARK  Name = 
REMARK  13 active torsions:
REMARK  status: ('A' for Active; 'I' for Inactive)
REMARK    1  A    between atoms: C_1  and  C_2
REMARK    2  A    between atoms: C_2  and  O_3
REMARK    3  A    between atoms: O_3  and  P_4
REMARK    4  A    between atoms: P_4  and  O_6
REMARK    5  A    between atoms: P_4  and  S_9
REMARK    6  A    between atoms: O_6  and  C_7
REMARK    7  A    between atoms: C_7  and  C_8
REMARK    8  A    between atoms: S_9  and  C_10
REMARK    9  A    between atoms: C_10  and  C_11
REMARK   10  A    between atoms: C_11  and  N_12
REMARK   11  A    between atoms: N_12  and  C_13
REMARK   12  A    between atoms: N_12  and  C_14
REMARK   13  A    between atoms: N_12  and  C_15
REMARK                            x       y       z     vdW  Elec       q    Type
REMARK                         _______ _______ _______ _____ _____    ______ ____
ROOT
ATOM      1  P   UNL     1       1.663  -0.270  -0.482  0.00  0.00    +0.391 P 
ATOM      2  O   UNL     1       0.833  -0.661  -1.684  0.00  0.00    -0.246 OA
ENDROOT
BRANCH   1   3
ATOM      3  O   UNL     1       3.207  -0.993  -0.590  0.00  0.00    -0.300 OA
BRANCH   3   5
ATOM      4  C   UNL     1       4.417  -3.038  -0.790  0.00  0.00    +0.035 C 
ATOM      5  C   UNL     1       3.046  -2.384  -0.727  0.00  0.00    +0.167 C 
ENDBRANCH   3   5
ENDBRANCH   1   3
BRANCH   1   6
ATOM      6  O   UNL     1       1.833   1.428  -0.482  0.00  0.00    -0.300 OA
BRANCH   6   7
ATOM      7  C   UNL     1       2.735   1.786   0.537  0.00  0.00    +0.167 C 
ATOM      8  C   UNL     1       2.849   3.302   0.588  0.00  0.00    +0.035 C 
ENDBRANCH   6   7
ENDBRANCH   1   6
BRANCH   1   9
ATOM      9  S   UNL     1       0.678  -0.899   1.299  0.00  0.00    -0.043 S 
BRANCH   9  10
ATOM     10  C   UNL     1      -0.814   0.131   1.067  0.00  0.00    +0.063 C 
BRANCH  10  11
ATOM     11  C   UNL     1      -1.908  -0.676   0.337  0.00  0.00    -0.065 C 
BRANCH  11  12
ATOM     12  N   UNL     1      -3.147   0.091   0.002  0.00  0.00    +0.375 N 
ATOM     13  C   UNL     1      -2.862   1.169  -0.976  0.00  0.00    -0.093 C 
ATOM     14  C   UNL     1      -3.768   0.671   1.217  0.00  0.00    -0.093 C 
ATOM     15  C   UNL     1      -4.115  -0.850  -0.613  0.00  0.00    -0.093 C 
ENDBRANCH  11  12
ENDBRANCH  10  11
ENDBRANCH   9  10
ENDBRANCH   1   9
TORSDOF 8
