REMARK  Name = 
REMARK  6 active torsions:
REMARK  status: ('A' for Active; 'I' for Inactive)
REMARK    1  A    between atoms: C_5  and  C_6
REMARK    2  A    between atoms: C_6  and  O_7
REMARK    3  A    between atoms: O_7  and  C_8
REMARK    4  A    between atoms: C_8  and  C_9
REMARK    5  A    between atoms: C_8  and  C_15
REMARK    6  A    between atoms: C_9  and  N_10
REMARK                            x       y       z     vdW  Elec       q    Type
REMARK                         _______ _______ _______ _____ _____    ______ ____
ROOT
ATOM      1  C   UNL     1      -1.248   0.087   0.335  0.00  0.00    +0.170 C 
ENDROOT
BRANCH   1   2
ATOM      2  C   UNL     1      -1.550  -1.404   0.395  0.00  0.00    +0.001 A 
ATOM      3  C   UNL     1      -1.202  -2.298  -0.649  0.00  0.00    +0.048 A 
ATOM      4 CL   UNL     1      -0.378  -1.774  -2.116  0.00  0.00    -0.083 Cl
ATOM      5  C   UNL     1      -1.518  -3.658  -0.537  0.00  0.00    +0.040 A 
ATOM      6  C   UNL     1      -2.182  -4.142   0.592  0.00  0.00    +0.042 A 
ATOM      7 CL   UNL     1      -2.571  -5.847   0.719  0.00  0.00    -0.083 Cl
ATOM      8  C   UNL     1      -2.539  -3.266   1.618  0.00  0.00    +0.020 A 
ATOM      9  C   UNL     1      -2.231  -1.907   1.519  0.00  0.00    +0.009 A 
ENDBRANCH   1   2
BRANCH   1  10
ATOM     10  O   UNL     1       0.067   0.320  -0.136  0.00  0.00    -0.366 OA
BRANCH  10  11
ATOM     11  C   UNL     1       1.003   0.214   0.916  0.00  0.00    +0.196 C 
BRANCH  11  16
ATOM     12 CL   UNL     1       6.509   0.280  -1.613  0.00  0.00    -0.084 Cl
ATOM     13  C   UNL     1       4.921   0.260  -0.869  0.00  0.00    +0.041 A 
ATOM     14  C   UNL     1       4.338   1.454  -0.431  0.00  0.00    +0.020 A 
ATOM     15  C   UNL     1       3.071   1.440   0.160  0.00  0.00    +0.007 A 
ATOM     16  C   UNL     1       2.383   0.228   0.330  0.00  0.00    -0.022 A 
ATOM     17  C   UNL     1       2.966  -0.965  -0.129  0.00  0.00    +0.007 A 
ATOM     18  C   UNL     1       4.233  -0.948  -0.720  0.00  0.00    +0.020 A 
ENDBRANCH  11  16
ENDBRANCH  10  11
ENDBRANCH   1  10
BRANCH   1  19
ATOM     19  C   UNL     1      -2.250   0.790  -0.591  0.00  0.00    +0.159 C 
BRANCH  19  20
ATOM     20  N   UNL     1      -2.001   2.230  -0.609  0.00  0.00    -0.334 N 
ATOM     21  C   UNL     1      -2.450   3.138   0.272  0.00  0.00    +0.107 A 
ATOM     22  C   UNL     1      -1.908   4.357  -0.067  0.00  0.00    +0.130 A 
ATOM     23  N   UNL     1      -1.113   4.215  -1.148  0.00  0.00    -0.244 NA
ATOM     24  C   UNL     1      -1.190   2.901  -1.449  0.00  0.00    +0.199 A 
ENDBRANCH  19  20
ENDBRANCH   1  19
TORSDOF 6
