REMARK  Name = 
REMARK  15 active torsions:
REMARK  status: ('A' for Active; 'I' for Inactive)
REMARK    1  A    between atoms: O_1  and  C_2
REMARK    2  A    between atoms: C_2  and  C_4
REMARK    3  A    between atoms: C_4  and  N_5
REMARK    4  A    between atoms: N_5  and  C_6
REMARK    5  A    between atoms: N_5  and  C_17
REMARK    6  A    between atoms: C_6  and  C_7
REMARK    7  A    between atoms: C_7  and  N_8
REMARK    8  A    between atoms: N_8  and  C_9
REMARK    9  A    between atoms: N_8  and  C_13
REMARK   10  A    between atoms: C_9  and  C_10
REMARK   11  A    between atoms: C_10  and  O_11
REMARK   12  A    between atoms: C_13  and  C_14
REMARK   13  A    between atoms: C_14  and  O_15
REMARK   14  A    between atoms: C_17  and  C_18
REMARK   15  A    between atoms: C_18  and  O_19
REMARK                            x       y       z     vdW  Elec       q    Type
REMARK                         _______ _______ _______ _____ _____    ______ ____
ROOT
ATOM      1  C   UNL     1      -0.221   0.690   0.854  0.00  0.00    +0.101 C 
ENDROOT
BRANCH   1   2
ATOM      2  N   UNL     1      -0.931   0.045  -0.273  0.00  0.00    -0.281 NA
BRANCH   2   3
ATOM      3  C   UNL     1      -1.687   1.029  -1.087  0.00  0.00    +0.206 C 
BRANCH   3   4
ATOM      4  C   UNL     1      -2.796   1.706  -0.328  0.00  0.00    +0.319 C 
ATOM      5  O   UNL     1      -2.551   2.714   0.387  0.00  0.00    -0.250 OA
BRANCH   4   6
ATOM      6  O   UNL     1      -4.094   1.210  -0.407  0.00  0.00    -0.480 OA
ATOM      7  H   UNL     1      -4.850   1.650   0.104  0.00  0.00    +0.295 HD
ENDBRANCH   4   6
ENDBRANCH   3   4
ENDBRANCH   2   3
BRANCH   2   8
ATOM      8  C   UNL     1      -1.768  -1.089   0.183  0.00  0.00    +0.206 C 
BRANCH   8   9
ATOM      9  C   UNL     1      -2.214  -1.931  -0.972  0.00  0.00    +0.319 C 
ATOM     10  O   UNL     1      -1.383  -2.645  -1.593  0.00  0.00    -0.250 OA
BRANCH   9  11
ATOM     11  O   UNL     1      -3.546  -1.906  -1.375  0.00  0.00    -0.480 OA
ATOM     12  H   UNL     1      -3.861  -2.461  -2.161  0.00  0.00    +0.295 HD
ENDBRANCH   9  11
ENDBRANCH   8   9
ENDBRANCH   2   8
ENDBRANCH   1   2
BRANCH   1  13
ATOM     13  C   UNL     1       1.099  -0.035   1.212  0.00  0.00    +0.101 C 
BRANCH  13  14
ATOM     14  N   UNL     1       2.138  -0.077   0.144  0.00  0.00    -0.281 NA
BRANCH  14  15
ATOM     15  C   UNL     1       2.386   1.210  -0.540  0.00  0.00    +0.206 C 
BRANCH  15  16
ATOM     16  C   UNL     1       2.843   2.263   0.424  0.00  0.00    +0.319 C 
ATOM     17  O   UNL     1       3.879   2.076   1.117  0.00  0.00    -0.250 OA
BRANCH  16  18
ATOM     18  O   UNL     1       2.130   3.451   0.545  0.00  0.00    -0.480 OA
ATOM     19  H   UNL     1       2.427   4.171   1.193  0.00  0.00    +0.295 HD
ENDBRANCH  16  18
ENDBRANCH  15  16
ENDBRANCH  14  15
BRANCH  14  20
ATOM     20  C   UNL     1       1.961  -1.183  -0.821  0.00  0.00    +0.206 C 
BRANCH  20  21
ATOM     21  C   UNL     1       2.218  -2.506  -0.169  0.00  0.00    +0.319 C 
ATOM     22  O   UNL     1       3.378  -2.796   0.229  0.00  0.00    -0.250 OA
BRANCH  21  23
ATOM     23  O   UNL     1       1.173  -3.406   0.014  0.00  0.00    -0.480 OA
ATOM     24  H   UNL     1       1.331  -4.301   0.462  0.00  0.00    +0.295 HD
ENDBRANCH  21  23
ENDBRANCH  20  21
ENDBRANCH  14  20
ENDBRANCH  13  14
ENDBRANCH   1  13
TORSDOF 15
