REMARK  Name = 
REMARK  6 active torsions:
REMARK  status: ('A' for Active; 'I' for Inactive)
REMARK    1  A    between atoms: C_1  and  C_2
REMARK    2  A    between atoms: C_2  and  N_3
REMARK    3  A    between atoms: N_3  and  C_4
REMARK    4  A    between atoms: N_3  and  C_5
REMARK    5  A    between atoms: N_3  and  C_6
REMARK    6  A    between atoms: C_8  and  O_9
REMARK                            x       y       z     vdW  Elec       q    Type
REMARK                         _______ _______ _______ _____ _____    ______ ____
ROOT
ATOM      1  C   UNL     1       0.575   0.259   0.153  0.00  0.00    +0.019 A 
ATOM      2  C   UNL     1       1.386  -0.903   0.317  0.00  0.00    +0.067 A 
ATOM      3  C   UNL     1       2.781  -0.816   0.395  0.00  0.00    +0.119 A 
ATOM      4  C   UNL     1       3.411   0.426   0.313  0.00  0.00    +0.045 A 
ATOM      5  C   UNL     1       2.652   1.580   0.153  0.00  0.00    +0.005 A 
ATOM      6  C   UNL     1       1.261   1.504   0.074  0.00  0.00    +0.022 A 
ENDROOT
BRANCH   1   7
ATOM      7  N   UNL     1      -0.907   0.211   0.065  0.00  0.00    -0.387 NA
ATOM      8  C   UNL     1      -1.472   1.026   1.173  0.00  0.00    +0.109 C 
ATOM      9  C   UNL     1      -1.321   0.790  -1.241  0.00  0.00    +0.109 C 
BRANCH   7  11
ATOM     10  C   UNL     1      -2.962  -1.367   0.091  0.00  0.00    +0.023 C 
ATOM     11  C   UNL     1      -1.431  -1.194   0.169  0.00  0.00    +0.084 C 
ENDBRANCH   7  11
ENDBRANCH   1   7
BRANCH   3  12
ATOM     12  O   UNL     1       3.531  -1.979   0.555  0.00  0.00    -0.507 OA
ATOM     13  H   UNL     1       4.543  -1.954   0.616  0.00  0.00    +0.292 HD
ENDBRANCH   3  12
TORSDOF 3
