REMARK  Name = 
REMARK  3 active torsions:
REMARK  status: ('A' for Active; 'I' for Inactive)
REMARK    1  A    between atoms: C_2  and  C_5
REMARK    2  A    between atoms: C_5  and  C_17
REMARK    3  A    between atoms: C_18  and  C_19
REMARK                            x       y       z     vdW  Elec       q    Type
REMARK                         _______ _______ _______ _____ _____    ______ ____
ROOT
ATOM      1  C   UNL     1      -0.226  -1.292  -0.134  0.00  0.00    +0.296 C 
ATOM      2  O   UNL     1      -0.417  -2.160  -1.258  0.00  0.00    -0.417 OA
ATOM      3  C   UNL     1      -1.646  -2.321  -1.897  0.00  0.00    +0.407 C 
ATOM      4  O   UNL     1      -1.814  -3.268  -2.709  0.00  0.00    -0.226 OA
ATOM      5  N   UNL     1      -2.692  -1.384  -1.659  0.00  0.00    -0.251 N 
ATOM      6  C   UNL     1      -2.430  -0.229  -0.857  0.00  0.00    +0.045 A 
ATOM      7  C   UNL     1      -1.215  -0.122  -0.143  0.00  0.00    +0.040 A 
ATOM      8  C   UNL     1      -0.992   1.027   0.646  0.00  0.00    +0.030 A 
ATOM      9  C   UNL     1      -1.939   2.054   0.695  0.00  0.00    +0.042 A 
ATOM     10 CL   UNL     1      -1.637   3.479   1.673  0.00  0.00    -0.084 Cl
ATOM     11  C   UNL     1      -3.130   1.941  -0.024  0.00  0.00    +0.022 A 
ATOM     12  C   UNL     1      -3.377   0.803  -0.794  0.00  0.00    +0.025 A 
ATOM     13  H   UNL     1      -3.612  -1.500  -2.142  0.00  0.00    +0.158 HD
ENDROOT
BRANCH   1  15
ATOM     14  F   UNL     1       0.462  -3.208   1.137  0.00  0.00    -0.165 F 
ATOM     15  C   UNL     1      -0.394  -2.119   1.157  0.00  0.00    +0.446 C 
ATOM     16  F   UNL     1      -1.694  -2.586   1.258  0.00  0.00    -0.165 F 
ATOM     17  F   UNL     1      -0.110  -1.354   2.276  0.00  0.00    -0.165 F 
ENDBRANCH   1  15
BRANCH   1  18
ATOM     18  C   UNL     1       1.156  -0.784  -0.215  0.00  0.00    -0.041 C 
ATOM     19  C   UNL     1       2.282  -0.358  -0.277  0.00  0.00    -0.094 C 
BRANCH  19  20
ATOM     20  C   UNL     1       3.649   0.172  -0.345  0.00  0.00    +0.064 C 
ATOM     21  C   UNL     1       4.062   0.977   0.876  0.00  0.00    +0.017 C 
ATOM     22  C   UNL     1       3.720   1.688  -0.423  0.00  0.00    +0.017 C 
ENDBRANCH  19  20
ENDBRANCH   1  18
TORSDOF 3
