REMARK  Name = 
REMARK  7 active torsions:
REMARK  status: ('A' for Active; 'I' for Inactive)
REMARK    1  A    between atoms: C_1  and  N_2
REMARK    2  A    between atoms: C_6  and  C_7
REMARK    3  A    between atoms: C_7  and  C_8
REMARK    4  A    between atoms: C_14  and  C_15
REMARK    5  A    between atoms: C_15  and  C_16
REMARK    6  A    between atoms: C_16  and  S_17
REMARK    7  A    between atoms: S_17  and  C_20
REMARK                            x       y       z     vdW  Elec       q    Type
REMARK                         _______ _______ _______ _____ _____    ______ ____
ROOT
ATOM      1  C   UNL     1      -1.944  -0.873   1.327  0.00  0.00    -0.021 A 
ATOM      2  C   UNL     1      -2.124  -0.834   2.707  0.00  0.00    +0.087 A 
ATOM      3  N   UNL     1      -1.053  -0.269   3.307  0.00  0.00    -0.360 N 
ATOM      4  C   UNL     1      -0.202   0.056   2.319  0.00  0.00    +0.047 A 
ATOM      5  C   UNL     1      -0.712  -0.292   1.095  0.00  0.00    +0.003 A 
ATOM      6  C   UNL     1      -0.015  -0.045  -0.088  0.00  0.00    +0.014 A 
ATOM      7  C   UNL     1       1.251   0.575   0.003  0.00  0.00    -0.045 A 
ATOM      8  C   UNL     1       1.767   0.938   1.274  0.00  0.00    +0.006 A 
ATOM      9  C   UNL     1       1.038   0.676   2.446  0.00  0.00    +0.026 A 
ATOM     10  H   UNL     1      -0.922  -0.110   4.331  0.00  0.00    +0.165 HD
ENDROOT
BRANCH   1  11
ATOM     11  C   UNL     1      -2.939  -1.367   0.317  0.00  0.00    +0.056 C 
BRANCH  11  17
ATOM     12  C   UNL     1      -6.218  -1.439  -0.075  0.00  0.00    +0.105 C 
ATOM     13  N   UNL     1      -5.075  -0.895  -0.828  0.00  0.00    -0.302 NA
ATOM     14  C   UNL     1      -5.493   0.181  -1.745  0.00  0.00    +0.084 C 
ATOM     15  C   UNL     1      -4.713   1.437  -1.387  0.00  0.00    +0.017 C 
ATOM     16  C   UNL     1      -3.526   0.930  -0.608  0.00  0.00    +0.020 C 
ATOM     17  C   UNL     1      -4.050  -0.332   0.068  0.00  0.00    +0.061 C 
ENDBRANCH  11  17
ENDBRANCH   1  11
BRANCH   7  18
ATOM     18  C   UNL     1       2.054   0.837  -1.246  0.00  0.00    +0.058 C 
BRANCH  18  19
ATOM     19  C   UNL     1       2.551  -0.457  -1.907  0.00  0.00    +0.176 C 
BRANCH  19  20
ATOM     20  S   UNL     1       3.664  -1.393  -0.860  0.00  0.00    -0.003 S 
ATOM     21  O   UNL     1       4.313  -2.476  -1.674  0.00  0.00    -0.169 OA
ATOM     22  O   UNL     1       2.873  -2.034   0.247  0.00  0.00    -0.169 OA
BRANCH  20  23
ATOM     23  C   UNL     1       4.920  -0.355  -0.189  0.00  0.00    +0.088 A 
ATOM     24  C   UNL     1       5.107  -0.261   1.199  0.00  0.00    +0.027 A 
ATOM     25  C   UNL     1       6.102   0.574   1.717  0.00  0.00    +0.002 A 
ATOM     26  C   UNL     1       6.918   1.312   0.854  0.00  0.00    +0.000 A 
ATOM     27  C   UNL     1       6.739   1.216  -0.529  0.00  0.00    +0.002 A 
ATOM     28  C   UNL     1       5.744   0.383  -1.050  0.00  0.00    +0.027 A 
ENDBRANCH  20  23
ENDBRANCH  19  20
ENDBRANCH  18  19
ENDBRANCH   7  18
TORSDOF 6
