REMARK  Name = 
REMARK  10 active torsions:
REMARK  status: ('A' for Active; 'I' for Inactive)
REMARK    1  A    between atoms: C_1  and  C_2
REMARK    2  A    between atoms: N_4  and  C_26
REMARK    3  A    between atoms: N_8  and  N_9
REMARK    4  A    between atoms: N_9  and  C_10
REMARK    5  A    between atoms: C_11  and  O_12
REMARK    6  A    between atoms: C_13  and  C_17
REMARK    7  A    between atoms: C_21  and  C_23
REMARK    8  A    between atoms: C_23  and  O_24
REMARK    9  A    between atoms: C_29  and  C_30
REMARK   10  A    between atoms: C_31  and  C_32
REMARK                            x       y       z     vdW  Elec       q    Type
REMARK                         _______ _______ _______ _____ _____    ______ ____
ROOT
ATOM      1  N   UNL     1      -0.630   0.138   1.324  0.00  0.00    -0.233 N 
ATOM      2  H   UNL     1      -0.385  -0.343   0.433  0.00  0.00    +0.175 HD
ENDROOT
BRANCH   1  10
ATOM      3  C   UNL     1       2.417   2.466   3.674  0.00  0.00    +0.070 C 
ATOM      4  C   UNL     1       2.643   1.632   2.457  0.00  0.00    +0.089 C 
ATOM      5  N   UNL     1       3.792   1.542   1.859  0.00  0.00    -0.175 NA
ATOM      6  N   UNL     1       3.684   0.727   0.720  0.00  0.00    -0.155 N 
ATOM      7  C   UNL     1       2.326   0.315   0.605  0.00  0.00    +0.292 C 
ATOM      8  O   UNL     1       1.854  -0.363  -0.344  0.00  0.00    -0.266 OA
ATOM      9  C   UNL     1       1.610   0.889   1.734  0.00  0.00    +0.168 C 
ATOM     10  N   UNL     1       0.352   0.828   2.056  0.00  0.00    -0.175 NA
BRANCH   6  11
ATOM     11  C   UNL     1       4.769   0.470  -0.187  0.00  0.00    +0.061 A 
ATOM     12  C   UNL     1       5.814   1.395  -0.301  0.00  0.00    +0.026 A 
ATOM     13  C   UNL     1       6.872   1.164  -1.181  0.00  0.00    +0.005 A 
ATOM     14  C   UNL     1       6.909   0.000  -1.965  0.00  0.00    -0.047 A 
ATOM     15  C   UNL     1       8.066  -0.213  -2.907  0.00  0.00    +0.044 C 
ATOM     16  C   UNL     1       5.886  -0.965  -1.821  0.00  0.00    -0.046 A 
ATOM     17  C   UNL     1       5.897  -2.243  -2.618  0.00  0.00    +0.044 C 
ATOM     18  C   UNL     1       4.820  -0.715  -0.939  0.00  0.00    +0.029 A 
ENDBRANCH   6  11
ENDBRANCH   1  10
BRANCH   1  19
ATOM     19  C   UNL     1      -2.001   0.141   1.756  0.00  0.00    +0.090 A 
ATOM     20  C   UNL     1      -3.019  -0.328   0.898  0.00  0.00    +0.147 A 
ATOM     21  C   UNL     1      -4.370  -0.292   1.322  0.00  0.00    +0.025 A 
ATOM     22  C   UNL     1      -4.676   0.156   2.616  0.00  0.00    +0.012 A 
ATOM     23  C   UNL     1      -3.666   0.597   3.469  0.00  0.00    +0.003 A 
ATOM     24  C   UNL     1      -2.339   0.602   3.041  0.00  0.00    +0.028 A 
BRANCH  21  25
ATOM     25  C   UNL     1      -5.479  -0.676   0.422  0.00  0.00    -0.014 A 
ATOM     26  C   UNL     1      -6.370  -1.694   0.792  0.00  0.00    +0.008 A 
ATOM     27  C   UNL     1      -7.438  -2.031  -0.043  0.00  0.00    +0.001 A 
ATOM     28  C   UNL     1      -7.638  -1.343  -1.242  0.00  0.00    +0.015 A 
ATOM     29  C   UNL     1      -6.767  -0.307  -1.621  0.00  0.00    +0.059 A 
ATOM     30  C   UNL     1      -5.686   0.019  -0.782  0.00  0.00    +0.023 A 
BRANCH  29  31
ATOM     31  C   UNL     1      -7.001   0.443  -2.875  0.00  0.00    +0.337 C 
ATOM     32  O   UNL     1      -6.224   1.376  -3.214  0.00  0.00    -0.245 OA
BRANCH  31  33
ATOM     33  O   UNL     1      -8.088   0.132  -3.687  0.00  0.00    -0.477 OA
ATOM     34  H   UNL     1      -8.277   0.661  -4.528  0.00  0.00    +0.295 HD
ENDBRANCH  31  33
ENDBRANCH  29  31
ENDBRANCH  21  25
BRANCH  20  35
ATOM     35  O   UNL     1      -2.665  -0.838  -0.355  0.00  0.00    -0.504 OA
ATOM     36  H   UNL     1      -3.329  -1.269  -0.984  0.00  0.00    +0.292 HD
ENDBRANCH  20  35
ENDBRANCH   1  19
TORSDOF 7
