REMARK  Name = 
REMARK  6 active torsions:
REMARK  status: ('A' for Active; 'I' for Inactive)
REMARK    1  A    between atoms: C_1  and  C_2
REMARK    2  A    between atoms: C_2  and  O_3
REMARK    3  A    between atoms: O_3  and  C_4
REMARK    4  A    between atoms: C_4  and  C_5
REMARK    5  A    between atoms: C_5  and  N_6
REMARK    6  A    between atoms: N_19  and  C_20
REMARK                            x       y       z     vdW  Elec       q    Type
REMARK                         _______ _______ _______ _____ _____    ______ ____
ROOT
ATOM      1  N   UNL     1      -0.523   0.916   0.630  0.00  0.00    -0.309 N 
ATOM      2  C   UNL     1       0.633   0.620  -0.020  0.00  0.00    +0.199 A 
ATOM      3  N   UNL     1       1.163   1.665  -0.707  0.00  0.00    -0.214 NA
ATOM      4  C   UNL     1       0.282   2.653  -0.466  0.00  0.00    +0.091 A 
ATOM      5  C   UNL     1       0.320   3.958  -0.951  0.00  0.00    +0.030 A 
ATOM      6  C   UNL     1      -0.736   4.819  -0.598  0.00  0.00    +0.002 A 
ATOM      7  C   UNL     1      -1.794   4.358   0.217  0.00  0.00    +0.002 A 
ATOM      8  C   UNL     1      -1.806   3.032   0.689  0.00  0.00    +0.028 A 
ATOM      9  C   UNL     1      -0.737   2.208   0.328  0.00  0.00    +0.070 A 
ATOM     10  N   UNL     1       1.233  -0.681  -0.020  0.00  0.00    -0.300 N 
ATOM     11  C   UNL     1       1.083  -1.523  -1.209  0.00  0.00    +0.109 C 
ATOM     12  C   UNL     1       2.288  -1.364  -2.137  0.00  0.00    +0.034 C 
ATOM     13  C   UNL     1       3.521  -2.146  -1.656  0.00  0.00    +0.085 C 
ATOM     14  N   UNL     1       4.023  -1.743  -0.327  0.00  0.00    -0.304 NA
ATOM     15  C   UNL     1       4.575  -0.380  -0.273  0.00  0.00    +0.104 C 
ATOM     16  C   UNL     1       3.145  -2.110   0.805  0.00  0.00    +0.103 C 
ATOM     17  C   UNL     1       2.051  -1.075   1.135  0.00  0.00    +0.123 C 
ENDROOT
BRANCH   1  18
ATOM     18  C   UNL     1      -1.417   0.001   1.344  0.00  0.00    +0.153 C 
BRANCH  18  19
ATOM     19  C   UNL     1      -2.481  -0.547   0.398  0.00  0.00    +0.181 C 
BRANCH  19  20
ATOM     20  O   UNL     1      -3.333  -1.415   1.116  0.00  0.00    -0.378 OA
BRANCH  20  22
ATOM     21  C   UNL     1      -5.639  -0.967   0.564  0.00  0.00    +0.034 C 
ATOM     22  C   UNL     1      -4.413  -1.835   0.302  0.00  0.00    +0.156 C 
ENDBRANCH  20  22
ENDBRANCH  19  20
ENDBRANCH  18  19
ENDBRANCH   1  18
TORSDOF 4
