REMARK  Name = 
REMARK  3 active torsions:
REMARK  status: ('A' for Active; 'I' for Inactive)
REMARK    1  A    between atoms: N_6  and  C_10
REMARK    2  A    between atoms: C_13  and  C_14
REMARK    3  A    between atoms: C_14  and  O_15
REMARK                            x       y       z     vdW  Elec       q    Type
REMARK                         _______ _______ _______ _____ _____    ______ ____
ROOT
ATOM      1  N   UNL     1      -4.835   0.495   0.532  0.00  0.00    -0.341 N 
ATOM      2  C   UNL     1      -3.473   0.274   0.170  0.00  0.00    +0.159 A 
ATOM      3  N   UNL     1      -2.606   1.314   0.099  0.00  0.00    -0.175 NA
ATOM      4  C   UNL     1      -1.303   1.135  -0.240  0.00  0.00    +0.352 A 
ATOM      5  O   UNL     1      -0.560   2.149  -0.332  0.00  0.00    -0.244 OA
ATOM      6  N   UNL     1      -0.812  -0.129  -0.491  0.00  0.00    -0.269 N 
ATOM      7  C   UNL     1      -1.692  -1.185  -0.487  0.00  0.00    +0.135 A 
ATOM      8  C   UNL     1      -3.029  -1.005  -0.138  0.00  0.00    +0.179 A 
ATOM      9  F   UNL     1      -3.880  -2.062  -0.113  0.00  0.00    -0.200 F 
ATOM     10  H   UNL     1      -5.181   1.454   0.756  0.00  0.00    +0.144 HD
ATOM     11  H   UNL     1      -5.181   1.454   0.756  0.00  0.00    +0.144 HD
ENDROOT
BRANCH   6  12
ATOM     12  C   UNL     1       0.609  -0.307  -0.897  0.00  0.00    +0.235 C 
ATOM     13  C   UNL     1       1.129  -1.734  -0.740  0.00  0.00    +0.126 C 
ATOM     14  S   UNL     1       2.924  -1.616  -0.717  0.00  0.00    -0.123 S 
ATOM     15  C   UNL     1       2.779   0.176  -0.425  0.00  0.00    +0.203 C 
ATOM     16  O   UNL     1       1.446   0.513  -0.117  0.00  0.00    -0.340 OA
BRANCH  15  17
ATOM     17  C   UNL     1       3.691   0.586   0.726  0.00  0.00    +0.198 C 
BRANCH  17  18
ATOM     18  O   UNL     1       3.615   1.972   0.918  0.00  0.00    -0.392 OA
ATOM     19  H   UNL     1       4.220   2.178   1.677  0.00  0.00    +0.210 HD
ENDBRANCH  17  18
ENDBRANCH  15  17
ENDBRANCH   6  12
TORSDOF 3
