REMARK  Name = 
REMARK  13 active torsions:
REMARK  status: ('A' for Active; 'I' for Inactive)
REMARK    1  A    between atoms: C_1  and  C_2
REMARK    2  A    between atoms: C_2  and  O_3
REMARK    3  A    between atoms: O_3  and  C_4
REMARK    4  A    between atoms: C_4  and  C_6
REMARK    5  A    between atoms: C_6  and  C_7
REMARK    6  A    between atoms: C_6  and  N_15
REMARK    7  A    between atoms: C_7  and  C_8
REMARK    8  A    between atoms: C_8  and  C_9
REMARK    9  A    between atoms: N_15  and  CA_16
REMARK   10  A    between atoms: CA_16  and  CB_17
REMARK   11  A    between atoms: CA_16  and  C_18
REMARK   12  A    between atoms: CA_24  and  C_25
REMARK   13  A    between atoms: C_25  and  O_26
REMARK                            x       y       z     vdW  Elec       q    Type
REMARK                         _______ _______ _______ _____ _____    ______ ____
ROOT
ATOM      1  N   ALA A   1       0.825  -1.037   0.065  0.00  0.00    -0.294 NA
ATOM      2  H   ALA A   1       1.688  -1.591   0.287  0.00  0.00    +0.123 HD
ENDROOT
BRANCH   1   3
ATOM      3  CA  ALA A   1       0.862  -0.700  -1.378  0.00  0.00    +0.138 C 
ATOM      4  CB  ALA A   1      -0.187   0.354  -1.761  0.00  0.00    +0.034 C 
BRANCH   3   5
ATOM      5  C   ALA A   1       2.248  -0.220  -1.766  0.00  0.00    +0.233 C 
ATOM      6  O   ALA A   1       2.814  -0.772  -2.749  0.00  0.00    -0.274 OA
ATOM      7  N   PRO A   2       2.946   0.821  -1.049  0.00  0.00    -0.287 N 
ATOM      8  CD  PRO A   2       2.323   1.767  -0.135  0.00  0.00    +0.109 C 
ATOM      9  CG  PRO A   2       3.454   2.630   0.409  0.00  0.00    +0.021 C 
ATOM     10  CB  PRO A   2       4.629   2.428  -0.543  0.00  0.00    +0.035 C 
ATOM     11  CA  PRO A   2       4.357   1.109  -1.268  0.00  0.00    +0.184 C 
BRANCH  11  12
ATOM     12  C   PRO A   2       5.215  -0.006  -0.726  0.00  0.00    +0.325 C 
ATOM     13  OXT PRO A   2       6.198  -0.417  -1.397  0.00  0.00    -0.249 OA
BRANCH  12  14
ATOM     14  O   PRO A   2       4.961  -0.569   0.523  0.00  0.00    -0.479 OA
ATOM     15  H   PRO A   2       4.188  -0.257   1.098  0.00  0.00    +0.295 HD
ENDBRANCH  12  14
ENDBRANCH  11  12
ENDBRANCH   3   5
ENDBRANCH   1   3
BRANCH   1  16
ATOM     16  C   UNK A   0      -0.331  -1.830   0.557  0.00  0.00    +0.164 C 
BRANCH  16  17
ATOM     17  C   UNK A   0      -0.754  -2.925  -0.391  0.00  0.00    +0.324 C 
ATOM     18  O   UNK A   0      -0.138  -4.026  -0.382  0.00  0.00    -0.249 OA
BRANCH  17  19
ATOM     19  O   UNK A   0      -1.782  -2.696  -1.312  0.00  0.00    -0.464 OA
BRANCH  19  21
ATOM     20  C   UNK A   0      -3.291  -3.087  -3.140  0.00  0.00    +0.048 C 
ATOM     21  C   UNK A   0      -2.177  -3.660  -2.280  0.00  0.00    +0.229 C 
ENDBRANCH  19  21
ENDBRANCH  17  19
ENDBRANCH  16  17
BRANCH  16  22
ATOM     22  C   UNK A   0      -1.520  -0.940   0.978  0.00  0.00    +0.035 C 
BRANCH  22  23
ATOM     23  C   UNK A   0      -1.121   0.103   2.030  0.00  0.00    +0.037 C 
BRANCH  23  24
ATOM     24  C   UNK A   0      -2.308   0.941   2.419  0.00  0.00    -0.047 A 
ATOM     25  C   UNK A   0      -3.138   0.548   3.482  0.00  0.00    +0.003 A 
ATOM     26  C   UNK A   0      -4.261   1.312   3.818  0.00  0.00    +0.000 A 
ATOM     27  C   UNK A   0      -4.567   2.465   3.091  0.00  0.00    +0.000 A 
ATOM     28  C   UNK A   0      -3.754   2.855   2.022  0.00  0.00    +0.000 A 
ATOM     29  C   UNK A   0      -2.631   2.094   1.683  0.00  0.00    +0.003 A 
ENDBRANCH  23  24
ENDBRANCH  22  23
ENDBRANCH  16  22
ENDBRANCH   1  16
TORSDOF 11
