REMARK  Name = 
REMARK  8 active torsions:
REMARK  status: ('A' for Active; 'I' for Inactive)
REMARK    1  A    between atoms: C_1  and  O_2
REMARK    2  A    between atoms: O_2  and  C_3
REMARK    3  A    between atoms: C_6  and  C_9
REMARK    4  A    between atoms: N_11  and  C_12
REMARK    5  A    between atoms: C_17  and  C_18
REMARK    6  A    between atoms: C_18  and  C_19
REMARK    7  A    between atoms: C_19  and  C_20
REMARK    8  A    between atoms: N_25  and  C_26
REMARK                            x       y       z     vdW  Elec       q    Type
REMARK                         _______ _______ _______ _____ _____    ______ ____
ROOT
ATOM      1  C   UNL     1       0.531  -2.157  -1.887  0.00  0.00    +0.037 A 
ATOM      2  C   UNL     1       1.238  -3.254  -2.413  0.00  0.00    +0.023 A 
ATOM      3  C   UNL     1       0.596  -4.192  -3.222  0.00  0.00    +0.002 A 
ATOM      4  C   UNL     1      -0.762  -4.056  -3.509  0.00  0.00    +0.000 A 
ATOM      5  C   UNL     1      -1.482  -2.979  -2.989  0.00  0.00    +0.005 A 
ATOM      6  C   UNL     1      -0.848  -2.017  -2.184  0.00  0.00    -0.026 A 
ENDROOT
BRANCH   1   9
ATOM      7  C   UNL     1       2.535  -0.748  -1.250  0.00  0.00    +0.248 C 
ATOM      8  O   UNL     1       3.059  -0.892  -2.388  0.00  0.00    -0.270 OA
ATOM      9  N   UNL     1       1.198  -1.224  -1.016  0.00  0.00    -0.281 N 
ATOM     10  H   UNL     1       0.659  -0.803  -0.229  0.00  0.00    +0.155 HD
BRANCH   7  14
ATOM     11  C   UNL     1       4.742   1.298   1.832  0.00  0.00    +0.120 A 
ATOM     12  C   UNL     1       3.680   0.452   2.167  0.00  0.00    +0.046 A 
ATOM     13  C   UNL     1       2.961  -0.217   1.173  0.00  0.00    +0.016 A 
ATOM     14  C   UNL     1       3.289  -0.044  -0.184  0.00  0.00    +0.037 A 
ATOM     15  C   UNL     1       4.364   0.798  -0.519  0.00  0.00    +0.016 A 
ATOM     16  C   UNL     1       5.082   1.467   0.477  0.00  0.00    +0.046 A 
BRANCH  11  18
ATOM     17  C   UNL     1       6.527   2.834   2.672  0.00  0.00    +0.277 C 
ATOM     18  O   UNL     1       5.430   1.947   2.868  0.00  0.00    -0.495 OA
ENDBRANCH  11  18
ENDBRANCH   7  14
ENDBRANCH   1   9
BRANCH   6  19
ATOM     19  C   UNL     1      -1.666  -0.872  -1.637  0.00  0.00    +0.038 C 
BRANCH  19  20
ATOM     20  C   UNL     1      -2.268  -1.241  -0.269  0.00  0.00    +0.023 C 
BRANCH  20  21
ATOM     21  C   UNL     1      -2.911  -0.043   0.467  0.00  0.00    +0.057 C 
ATOM     22  C   UNL     1      -1.825   0.860   1.099  0.00  0.00    +0.019 C 
ATOM     23  C   UNL     1      -2.462   1.989   1.924  0.00  0.00    +0.003 C 
ATOM     24  C   UNL     1      -3.788   2.489   1.324  0.00  0.00    +0.015 C 
ATOM     25  C   UNL     1      -3.884   2.171  -0.174  0.00  0.00    +0.084 C 
ATOM     26  N   UNL     1      -3.814   0.714  -0.448  0.00  0.00    -0.302 NA
ATOM     27  C   UNL     1      -5.162   0.120  -0.480  0.00  0.00    +0.105 C 
ENDBRANCH  20  21
ENDBRANCH  19  20
ENDBRANCH   6  19
TORSDOF 6
