REMARK  Name = 
REMARK  3 active torsions:
REMARK  status: ('A' for Active; 'I' for Inactive)
REMARK    1  A    between atoms: C_2  and  O_4
REMARK    2  A    between atoms: O_4  and  C_5
REMARK    3  A    between atoms: C_5  and  C_8
REMARK                            x       y       z     vdW  Elec       q    Type
REMARK                         _______ _______ _______ _____ _____    ______ ____
ROOT
ATOM      1  C   UNL     1       0.429  -0.161  -0.345  0.00  0.00    +0.406 C 
ATOM      2  F   UNL     1       0.409   0.857  -1.290  0.00  0.00    -0.170 F 
ATOM      3  F   UNL     1       0.312  -1.384  -0.990  0.00  0.00    -0.170 F 
ENDROOT
BRANCH   1   4
ATOM      4  C   UNL     1       1.774  -0.128   0.379  0.00  0.00    +0.355 C 
ATOM      5  F   UNL     1       1.833  -1.147   1.313  0.00  0.00    -0.219 F 
ATOM      6 CL   UNL     1       2.018   1.435   1.204  0.00  0.00    -0.076 Cl
ENDBRANCH   1   4
BRANCH   1   7
ATOM      7  O   UNL     1      -0.612  -0.006   0.602  0.00  0.00    -0.255 OA
BRANCH   7   9
ATOM      8  F   UNL     1      -2.053   1.432  -0.448  0.00  0.00    -0.178 F 
ATOM      9  C   UNL     1      -1.867   0.124  -0.036  0.00  0.00    +0.487 C 
ATOM     10  F   UNL     1      -2.858  -0.192   0.873  0.00  0.00    -0.178 F 
ENDBRANCH   7   9
ENDBRANCH   1   7
TORSDOF 3
