REMARK  Name = 
REMARK  35 active torsions:
REMARK  status: ('A' for Active; 'I' for Inactive)
REMARK    1  A    between atoms: C_1  and  C_2
REMARK    2  A    between atoms: N_4  and  C_5
REMARK    3  A    between atoms: C_6  and  O_7
REMARK    4  A    between atoms: C_9  and  C_10
REMARK    5  A    between atoms: C_10  and  O_11
REMARK    6  A    between atoms: O_11  and  S_12
REMARK    7  A    between atoms: S_12  and  O_13
REMARK    8  A    between atoms: C_16  and  O_17
REMARK    9  A    between atoms: O_17  and  C_18
REMARK   10  A    between atoms: C_20  and  C_66
REMARK   11  A    between atoms: C_21  and  O_22
REMARK   12  A    between atoms: O_22  and  C_23
REMARK   13  A    between atoms: C_25  and  C_26
REMARK   14  A    between atoms: C_26  and  O_27
REMARK   15  A    between atoms: C_28  and  O_29
REMARK   16  A    between atoms: O_29  and  C_30
REMARK   17  A    between atoms: C_32  and  C_43
REMARK   18  A    between atoms: C_33  and  O_34
REMARK   19  A    between atoms: C_35  and  O_36
REMARK   20  A    between atoms: C_37  and  O_38
REMARK   21  A    between atoms: O_38  and  S_39
REMARK   22  A    between atoms: S_39  and  O_40
REMARK   23  A    between atoms: C_43  and  O_44
REMARK   24  A    between atoms: C_46  and  O_47
REMARK   25  A    between atoms: O_47  and  S_48
REMARK   26  A    between atoms: S_48  and  O_49
REMARK   27  A    between atoms: C_52  and  N_53
REMARK   28  A    between atoms: N_53  and  S_54
REMARK   29  A    between atoms: S_54  and  O_55
REMARK   30  A    between atoms: C_58  and  O_59
REMARK   31  A    between atoms: C_60  and  O_61
REMARK   32  A    between atoms: O_61  and  S_62
REMARK   33  A    between atoms: S_62  and  O_63
REMARK   34  A    between atoms: C_66  and  O_67
REMARK   35  A    between atoms: C_69  and  O_70
REMARK                            x       y       z     vdW  Elec       q    Type
REMARK                         _______ _______ _______ _____ _____    ______ ____
ROOT
ATOM      1  C   UNL     1      -1.598  -0.069   1.235  0.00  0.00    +0.272 C 
ATOM      2  O   UNL     1      -1.933  -1.326   1.794  0.00  0.00    -0.341 OA
ATOM      3  C   UNL     1      -3.229  -1.800   1.429  0.00  0.00    +0.178 C 
ATOM      4  C   UNL     1      -4.149  -0.766   0.701  0.00  0.00    +0.185 C 
ATOM      5  C   UNL     1      -4.046   0.646   1.320  0.00  0.00    +0.206 C 
ATOM      6  C   UNL     1      -2.579   1.000   1.753  0.00  0.00    +0.168 C 
ENDROOT
BRANCH   6   7
ATOM      7  N   UNL     1      -2.438   1.098   3.222  0.00  0.00    -0.159 NA
ATOM      8  H   UNL     1      -3.358   1.131   3.714  0.00  0.00    +0.151 HD
BRANCH   7   9
ATOM      9  S   UNL     1      -1.600   2.545   3.708  0.00  0.00    +0.149 S 
ATOM     10  O   UNL     1      -2.502   3.737   3.557  0.00  0.00    -0.130 OA
ATOM     11  O   UNL     1      -1.210   2.423   5.157  0.00  0.00    -0.130 OA
BRANCH   9  12
ATOM     12  O   UNL     1      -0.220   2.785   2.771  0.00  0.00    -0.240 OA
ATOM     13  H   UNL     1       0.528   2.394   3.298  0.00  0.00    +0.246 HD
ENDBRANCH   9  12
ENDBRANCH   7   9
ENDBRANCH   6   7
BRANCH   4  14
ATOM     14  O   UNL     1      -5.508  -1.181   0.743  0.00  0.00    -0.340 OA
BRANCH  14  15
ATOM     15  C   UNL     1      -6.077  -1.261  -0.553  0.00  0.00    +0.286 C 
ATOM     16  O   UNL     1      -5.708  -2.505  -1.125  0.00  0.00    -0.331 OA
ATOM     17  C   UNL     1      -6.190  -2.612  -2.450  0.00  0.00    +0.260 C 
ATOM     18  C   UNL     1      -7.729  -2.642  -2.456  0.00  0.00    +0.185 C 
ATOM     19  C   UNL     1      -8.271  -1.358  -1.787  0.00  0.00    +0.182 C 
ATOM     20  C   UNL     1      -7.605  -1.156  -0.412  0.00  0.00    +0.238 C 
BRANCH  18  21
ATOM     21  O   UNL     1      -8.199  -2.749  -3.779  0.00  0.00    -0.386 OA
ATOM     22  H   UNL     1      -9.162  -2.999  -3.725  0.00  0.00    +0.210 HD
ENDBRANCH  18  21
BRANCH  19  23
ATOM     23  O   UNL     1      -8.023  -0.235  -2.603  0.00  0.00    -0.386 OA
ATOM     24  H   UNL     1      -8.715  -0.246  -3.317  0.00  0.00    +0.210 HD
ENDBRANCH  19  23
BRANCH  17  25
ATOM     25  C   UNL     1      -5.646  -3.878  -3.046  0.00  0.00    +0.337 C 
ATOM     26  O   UNL     1      -5.179  -3.876  -4.210  0.00  0.00    -0.248 OA
BRANCH  25  27
ATOM     27  O   UNL     1      -5.684  -5.062  -2.316  0.00  0.00    -0.479 OA
ATOM     28  H   UNL     1      -5.280  -5.913  -2.685  0.00  0.00    +0.295 HD
ENDBRANCH  25  27
ENDBRANCH  17  25
BRANCH  20  29
ATOM     29  O   UNL     1      -7.918   0.133   0.082  0.00  0.00    -0.205 OA
BRANCH  29  30
ATOM     30  S   UNL     1      -9.027   0.026   1.356  0.00  0.00    +0.208 S 
ATOM     31  O   UNL     1      -9.388   1.419   1.794  0.00  0.00    -0.118 OA
ATOM     32  O   UNL     1      -8.411  -0.704   2.519  0.00  0.00    -0.118 OA
BRANCH  30  33
ATOM     33  O   UNL     1     -10.424  -0.761   0.848  0.00  0.00    -0.231 OA
ATOM     34  H   UNL     1     -10.284  -1.716   1.078  0.00  0.00    +0.247 HD
ENDBRANCH  30  33
ENDBRANCH  29  30
ENDBRANCH  20  29
ENDBRANCH  14  15
ENDBRANCH   4  14
BRANCH   5  35
ATOM     35  O   UNL     1      -4.498   1.556   0.333  0.00  0.00    -0.208 OA
BRANCH  35  36
ATOM     36  S   UNL     1      -5.288   2.892   1.022  0.00  0.00    +0.208 S 
ATOM     37  O   UNL     1      -6.244   3.441   0.004  0.00  0.00    -0.118 OA
ATOM     38  O   UNL     1      -4.284   3.958   1.350  0.00  0.00    -0.118 OA
BRANCH  36  39
ATOM     39  O   UNL     1      -6.169   2.485   2.399  0.00  0.00    -0.231 OA
ATOM     40  H   UNL     1      -5.597   2.751   3.168  0.00  0.00    +0.247 HD
ENDBRANCH  36  39
ENDBRANCH  35  36
ENDBRANCH   5  35
BRANCH   1  41
ATOM     41  O   UNL     1      -0.275   0.269   1.631  0.00  0.00    -0.341 OA
BRANCH  41  45
ATOM     42  C   UNL     1       3.311   1.319   0.267  0.00  0.00    +0.285 C 
ATOM     43  O   UNL     1       2.808   0.762   1.475  0.00  0.00    -0.331 OA
ATOM     44  C   UNL     1       2.039  -0.397   1.226  0.00  0.00    +0.260 C 
ATOM     45  C   UNL     1       0.673  -0.006   0.606  0.00  0.00    +0.192 C 
ATOM     46  C   UNL     1       0.834   1.257  -0.286  0.00  0.00    +0.182 C 
ATOM     47  C   UNL     1       2.253   1.372  -0.883  0.00  0.00    +0.238 C 
BRANCH  44  48
ATOM     48  C   UNL     1       1.868  -1.179   2.495  0.00  0.00    +0.337 C 
ATOM     49  O   UNL     1       1.546  -2.397   2.440  0.00  0.00    -0.248 OA
BRANCH  48  50
ATOM     50  O   UNL     1       2.033  -0.561   3.733  0.00  0.00    -0.479 OA
ATOM     51  H   UNL     1       1.912  -1.072   4.597  0.00  0.00    +0.295 HD
ENDBRANCH  48  50
ENDBRANCH  44  48
BRANCH  46  52
ATOM     52  O   UNL     1      -0.152   1.315  -1.288  0.00  0.00    -0.386 OA
ATOM     53  H   UNL     1      -0.093   0.480  -1.823  0.00  0.00    +0.210 HD
ENDBRANCH  46  52
BRANCH  47  54
ATOM     54  O   UNL     1       2.479   0.302  -1.787  0.00  0.00    -0.205 OA
BRANCH  54  55
ATOM     55  S   UNL     1       2.667   0.885  -3.373  0.00  0.00    +0.208 S 
ATOM     56  O   UNL     1       3.806   1.861  -3.432  0.00  0.00    -0.118 OA
ATOM     57  O   UNL     1       1.407   1.560  -3.839  0.00  0.00    -0.118 OA
BRANCH  55  58
ATOM     58  O   UNL     1       3.010  -0.406  -4.387  0.00  0.00    -0.231 OA
ATOM     59  H   UNL     1       2.276  -1.058  -4.227  0.00  0.00    +0.247 HD
ENDBRANCH  55  58
ENDBRANCH  54  55
ENDBRANCH  47  54
BRANCH  42  60
ATOM     60  O   UNL     1       4.443   0.566  -0.155  0.00  0.00    -0.340 OA
BRANCH  60  65
ATOM     61  C   UNL     1       7.926   1.265  -1.341  0.00  0.00    +0.160 C 
ATOM     62  C   UNL     1       8.328   1.958  -0.016  0.00  0.00    +0.270 C 
ATOM     63  O   UNL     1       7.889   1.244   1.127  0.00  0.00    -0.341 OA
ATOM     64  C   UNL     1       6.564   0.715   1.062  0.00  0.00    +0.181 C 
ATOM     65  C   UNL     1       5.675   1.273  -0.089  0.00  0.00    +0.183 C 
ATOM     66  C   UNL     1       6.384   1.223  -1.467  0.00  0.00    +0.171 C 
BRANCH  61  70
ATOM     67  C   UNL     1       8.929   2.204  -4.982  0.00  0.00    +0.109 C 
ATOM     68  C   UNL     1       8.582   1.367  -3.792  0.00  0.00    +0.210 C 
ATOM     69  O   UNL     1       8.348   0.136  -3.939  0.00  0.00    -0.276 OA
ATOM     70  N   UNL     1       8.495   1.971  -2.495  0.00  0.00    -0.305 N 
ATOM     71  H   UNL     1       8.761   2.976  -2.396  0.00  0.00    +0.149 HD
ENDBRANCH  61  70
BRANCH  62  72
ATOM     72  O   UNL     1       9.732   2.047   0.055  0.00  0.00    -0.365 OA
ATOM     73  H   UNL     1       9.990   2.941  -0.295  0.00  0.00    +0.213 HD
ENDBRANCH  62  72
BRANCH  66  74
ATOM     74  O   UNL     1       5.966   0.122  -2.244  0.00  0.00    -0.387 OA
ATOM     75  H   UNL     1       6.239  -0.705  -1.774  0.00  0.00    +0.210 HD
ENDBRANCH  66  74
BRANCH  64  76
ATOM     76  C   UNL     1       6.646  -0.821   1.096  0.00  0.00    +0.230 C 
BRANCH  76  77
ATOM     77  O   UNL     1       7.332  -1.219   2.266  0.00  0.00    -0.213 OA
BRANCH  77  78
ATOM     78  S   UNL     1       7.522  -2.902   2.234  0.00  0.00    +0.208 S 
ATOM     79  O   UNL     1       8.332  -3.303   1.035  0.00  0.00    -0.118 OA
ATOM     80  O   UNL     1       6.182  -3.582   2.190  0.00  0.00    -0.118 OA
BRANCH  78  81
ATOM     81  O   UNL     1       8.344  -3.379   3.619  0.00  0.00    -0.231 OA
ATOM     82  H   UNL     1       7.735  -3.147   4.365  0.00  0.00    +0.247 HD
ENDBRANCH  78  81
ENDBRANCH  77  78
ENDBRANCH  76  77
ENDBRANCH  64  76
ENDBRANCH  60  65
ENDBRANCH  42  60
ENDBRANCH  41  45
ENDBRANCH   1  41
BRANCH   3  83
ATOM     83  C   UNL     1      -3.882  -2.428   2.669  0.00  0.00    +0.190 C 
BRANCH  83  84
ATOM     84  O   UNL     1      -4.166  -1.448   3.631  0.00  0.00    -0.392 OA
ATOM     85  H   UNL     1      -4.614  -1.921   4.377  0.00  0.00    +0.210 HD
ENDBRANCH  83  84
ENDBRANCH   3  83
TORSDOF 34
