REMARK  Name = 
REMARK  5 active torsions:
REMARK  status: ('A' for Active; 'I' for Inactive)
REMARK    1  A    between atoms: C_1  and  S_2
REMARK    2  A    between atoms: S_2  and  C_3
REMARK    3  A    between atoms: C_6  and  C_9
REMARK    4  A    between atoms: C_9  and  C_11
REMARK    5  A    between atoms: C_12  and  C_13
REMARK                            x       y       z     vdW  Elec       q    Type
REMARK                         _______ _______ _______ _____ _____    ______ ____
ROOT
ATOM      1  C   UNL     1       1.234  -0.411  -0.820  0.00  0.00    +0.211 C 
ATOM      2  O   UNL     1       1.839  -0.995  -1.760  0.00  0.00    -0.285 OA
ENDROOT
BRANCH   1   3
ATOM      3  C   UNL     1       1.972   0.562   0.016  0.00  0.00    +0.110 A 
ATOM      4  C   UNL     1       3.345   0.626   0.215  0.00  0.00    +0.044 A 
ATOM      5  C   UNL     1       4.385  -0.291  -0.348  0.00  0.00    +0.066 C 
ATOM      6  N   UNL     1       3.622   1.691   0.992  0.00  0.00    -0.310 N 
ATOM      7  C   UNL     1       2.424   2.248   1.248  0.00  0.00    +0.325 A 
ATOM      8  O   UNL     1       2.278   3.285   1.947  0.00  0.00    -0.247 OA
ATOM      9  N   UNL     1       1.399   1.593   0.672  0.00  0.00    -0.303 N 
ATOM     10  H   UNL     1       4.559   2.019   1.317  0.00  0.00    +0.170 HD
ATOM     11  H   UNL     1       0.389   1.857   0.701  0.00  0.00    +0.171 HD
ENDBRANCH   1   3
BRANCH   1  15
ATOM     12  C   UNL     1      -2.920  -1.304  -0.196  0.00  0.00    +0.008 A 
ATOM     13  C   UNL     1      -2.101  -0.997   0.896  0.00  0.00    +0.015 A 
ATOM     14  C   UNL     1      -0.748  -0.703   0.699  0.00  0.00    +0.013 A 
ATOM     15  C   UNL     1      -0.201  -0.705  -0.598  0.00  0.00    +0.024 A 
ATOM     16  C   UNL     1      -1.027  -1.036  -1.686  0.00  0.00    +0.013 A 
ATOM     17  C   UNL     1      -2.379  -1.329  -1.486  0.00  0.00    +0.015 A 
BRANCH  12  19
ATOM     18  C   UNL     1      -5.185   0.047  -0.117  0.00  0.00    +0.090 C 
ATOM     19  S   UNL     1      -4.654  -1.684   0.060  0.00  0.00    -0.129 S 
ENDBRANCH  12  19
ENDBRANCH   1  15
TORSDOF 3
