REMARK  Name = 
REMARK  5 active torsions:
REMARK  status: ('A' for Active; 'I' for Inactive)
REMARK    1  A    between atoms: C_1  and  C_2
REMARK    2  A    between atoms: C_2  and  N_3
REMARK    3  A    between atoms: C_5  and  C_6
REMARK    4  A    between atoms: C_6  and  O_7
REMARK    5  A    between atoms: C_15  and  N_18
REMARK                            x       y       z     vdW  Elec       q    Type
REMARK                         _______ _______ _______ _____ _____    ______ ____
ROOT
ATOM      1  N   UNL     1       2.126  -1.048   0.394  0.00  0.00    -0.331 N 
ATOM      2  C   UNL     1       3.468  -0.836   0.553  0.00  0.00    +0.106 A 
ATOM      3  C   UNL     1       4.061   0.395   0.224  0.00  0.00    +0.122 A 
ATOM      4  C   UNL     1       3.238   1.428  -0.269  0.00  0.00    +0.205 A 
ATOM      5  O   UNL     1       3.734   2.546  -0.579  0.00  0.00    -0.286 OA
ATOM      6  C   UNL     1       1.857   1.212  -0.411  0.00  0.00    +0.068 A 
ATOM      7  C   UNL     1       0.995   2.212  -0.891  0.00  0.00    +0.057 A 
ATOM      8  C   UNL     1      -0.373   1.967  -1.011  0.00  0.00    +0.164 A 
ATOM      9  F   UNL     1      -1.172   2.938  -1.520  0.00  0.00    -0.202 F 
ATOM     10  C   UNL     1      -0.886   0.712  -0.640  0.00  0.00    +0.159 A 
ATOM     11  N   UNL     1      -0.029  -0.246  -0.193  0.00  0.00    -0.211 NA
ATOM     12  C   UNL     1       1.313  -0.044  -0.067  0.00  0.00    +0.147 A 
ENDROOT
BRANCH  10  13
ATOM     13  N   UNL     1      -2.293   0.405  -0.740  0.00  0.00    -0.310 N 
ATOM     14  C   UNL     1      -2.713  -0.985  -0.945  0.00  0.00    +0.121 C 
ATOM     15  C   UNL     1      -4.117  -1.022  -1.561  0.00  0.00    +0.100 C 
ATOM     16  N   UNL     1      -5.119  -0.304  -0.748  0.00  0.00    -0.313 NA
ATOM     17  C   UNL     1      -4.580   0.777   0.098  0.00  0.00    +0.100 C 
ATOM     18  C   UNL     1      -3.319   1.425  -0.487  0.00  0.00    +0.121 C 
ATOM     19  H   UNL     1      -5.832   0.105  -1.398  0.00  0.00    +0.122 HD
ENDBRANCH  10  13
BRANCH   1  21
ATOM     20  C   UNL     1       1.074  -2.325   2.219  0.00  0.00    +0.027 C 
ATOM     21  C   UNL     1       1.568  -2.357   0.777  0.00  0.00    +0.120 C 
ENDBRANCH   1  21
BRANCH   3  22
ATOM     22  C   UNL     1       5.528   0.576   0.405  0.00  0.00    +0.342 C 
ATOM     23  O   UNL     1       6.235  -0.372   0.843  0.00  0.00    -0.245 OA
BRANCH  22  24
ATOM     24  O   UNL     1       6.143   1.786   0.097  0.00  0.00    -0.477 OA
ATOM     25  H   UNL     1       7.141   1.910   0.220  0.00  0.00    +0.295 HD
ENDBRANCH  22  24
ENDBRANCH   3  22
TORSDOF 4
