REMARK  Name = 
REMARK  3 active torsions:
REMARK  status: ('A' for Active; 'I' for Inactive)
REMARK    1  A    between atoms: C_1  and  C_2
REMARK    2  A    between atoms: C_2  and  C_3
REMARK    3  A    between atoms: C_3  and  N_4
REMARK                            x       y       z     vdW  Elec       q    Type
REMARK                         _______ _______ _______ _____ _____    ______ ____
ROOT
ATOM      1  N   UNL     1       0.041  -0.526   0.385  0.00  0.00    -0.277 N 
ATOM      2  C   UNL     1       1.056   0.369   0.218  0.00  0.00    +0.168 A 
ATOM      3  C   UNL     1       2.279   0.002  -0.227  0.00  0.00    +0.149 A 
ATOM      4  N   UNL     1       3.071   1.078  -0.299  0.00  0.00    -0.339 N 
ATOM      5  C   UNL     1       2.274   2.092   0.117  0.00  0.00    +0.199 A 
ATOM      6  N   UNL     1       1.015   1.696   0.446  0.00  0.00    -0.218 NA
ATOM      7  C   UNL     1       2.545  -1.319  -0.541  0.00  0.00    +0.280 A 
ATOM      8  O   UNL     1       3.679  -1.677  -0.958  0.00  0.00    -0.265 OA
ATOM      9  N   UNL     1       1.535  -2.226  -0.390  0.00  0.00    -0.273 N 
ATOM     10  C   UNL     1       0.293  -1.844   0.060  0.00  0.00    +0.331 A 
ATOM     11  O   UNL     1      -0.615  -2.713   0.168  0.00  0.00    -0.246 OA
ATOM     12  H   UNL     1       4.068   1.129  -0.607  0.00  0.00    +0.167 HD
ATOM     13  H   UNL     1       1.709  -3.230  -0.627  0.00  0.00    +0.173 HD
ENDROOT
BRANCH   1  14
ATOM     14  C   UNL     1      -1.288  -0.083   0.838  0.00  0.00    +0.128 C 
BRANCH  14  16
ATOM     15  C   UNL     1      -3.541   0.763   0.079  0.00  0.00    +0.005 C 
ATOM     16  C   UNL     1      -2.158   0.296  -0.365  0.00  0.00    +0.018 C 
ENDBRANCH  14  16
ENDBRANCH   1  14
TORSDOF 2
