REMARK  Name = 
REMARK  10 active torsions:
REMARK  status: ('A' for Active; 'I' for Inactive)
REMARK    1  A    between atoms: C_1  and  C_2
REMARK    2  A    between atoms: C_2  and  N_3
REMARK    3  A    between atoms: N_3  and  C_4
REMARK    4  A    between atoms: C_4  and  C_5
REMARK    5  A    between atoms: C_6  and  C_8
REMARK    6  A    between atoms: C_8  and  C_21
REMARK    7  A    between atoms: C_9  and  C_10
REMARK    8  A    between atoms: C_12  and  N_18
REMARK    9  A    between atoms: C_13  and  O_14
REMARK   10  A    between atoms: C_15  and  O_16
REMARK                            x       y       z     vdW  Elec       q    Type
REMARK                         _______ _______ _______ _____ _____    ______ ____
ROOT
ATOM      1  C   UNL     1       2.033  -0.355   0.450  0.00  0.00    -0.018 A 
ATOM      2  C   UNL     1       2.984  -0.328   1.478  0.00  0.00    +0.044 A 
ATOM      3  C   UNL     1       4.292   0.140   1.248  0.00  0.00    +0.172 A 
ATOM      4  C   UNL     1       4.643   0.577  -0.051  0.00  0.00    +0.189 A 
ATOM      5  C   UNL     1       3.699   0.519  -1.091  0.00  0.00    +0.161 A 
ATOM      6  C   UNL     1       2.406   0.046  -0.840  0.00  0.00    +0.057 A 
ENDROOT
BRANCH   3   7
ATOM      7  N   UNL     1       5.244   0.166   2.333  0.00  0.00    +0.060 N 
ATOM      8  O   UNL     1       6.583   0.384   2.103  0.00  0.00    -0.126 OA
ATOM      9  O   UNL     1       4.870  -0.048   3.506  0.00  0.00    -0.126 OA
ENDBRANCH   3   7
BRANCH   1  11
ATOM     10  C   UNL     1      -0.473  -0.330   0.318  0.00  0.00    +0.114 C 
ATOM     11  C   UNL     1       0.680  -0.890   0.735  0.00  0.00    +0.032 C 
BRANCH  10  13
ATOM     12  N   UNL     1      -2.947  -0.774  -0.145  0.00  0.00    -0.297 N 
ATOM     13  C   UNL     1      -1.772  -0.948   0.677  0.00  0.00    +0.257 C 
ATOM     14  O   UNL     1      -1.858  -1.626   1.738  0.00  0.00    -0.269 OA
BRANCH  12  16
ATOM     15  C   UNL     1      -4.499   0.560   1.219  0.00  0.00    +0.024 C 
ATOM     16  C   UNL     1      -4.272  -0.761   0.492  0.00  0.00    +0.105 C 
ENDBRANCH  12  16
BRANCH  12  17
ATOM     17  C   UNL     1      -2.852  -0.874  -1.611  0.00  0.00    +0.105 C 
ATOM     18  C   UNL     1      -3.416   0.373  -2.290  0.00  0.00    +0.024 C 
ENDBRANCH  12  17
ENDBRANCH  10  13
BRANCH  10  19
ATOM     19  C   UNL     1      -0.479   0.942  -0.370  0.00  0.00    +0.104 C 
ATOM     20  N   UNL     1      -0.479   1.962  -0.917  0.00  0.00    -0.191 NA
ENDBRANCH  10  19
ENDBRANCH   1  11
BRANCH   4  21
ATOM     21  O   UNL     1       5.925   1.071  -0.303  0.00  0.00    -0.502 OA
ATOM     22  H   UNL     1       6.211   1.395  -1.219  0.00  0.00    +0.292 HD
ENDBRANCH   4  21
BRANCH   5  23
ATOM     23  O   UNL     1       4.050   0.930  -2.376  0.00  0.00    -0.503 OA
ATOM     24  H   UNL     1       3.390   0.899  -3.144  0.00  0.00    +0.292 HD
ENDBRANCH   5  23
TORSDOF 8
