REMARK  Name = 
REMARK  4 active torsions:
REMARK  status: ('A' for Active; 'I' for Inactive)
REMARK    1  A    between atoms: N_9  and  C_12
REMARK    2  A    between atoms: C_14  and  O_15
REMARK    3  A    between atoms: C_16  and  C_17
REMARK    4  A    between atoms: C_17  and  O_18
REMARK                            x       y       z     vdW  Elec       q    Type
REMARK                         _______ _______ _______ _____ _____    ______ ____
ROOT
ATOM      1  N   UNL     1      -5.127  -0.790  -0.137  0.00  0.00    -0.329 N 
ATOM      2  C   UNL     1      -4.103   0.122   0.258  0.00  0.00    +0.195 A 
ATOM      3  N   UNL     1      -4.444   1.384   0.678  0.00  0.00    -0.176 NA
ATOM      4  C   UNL     1      -3.495   2.288   1.058  0.00  0.00    +0.302 A 
ATOM      5  O   UNL     1      -3.822   3.445   1.430  0.00  0.00    -0.263 OA
ATOM      6  C   UNL     1      -2.167   1.891   1.014  0.00  0.00    +0.172 A 
ATOM      7  C   UNL     1      -1.847   0.641   0.607  0.00  0.00    +0.147 A 
ATOM      8  N   UNL     1      -2.787  -0.258   0.215  0.00  0.00    -0.312 N 
ATOM      9  N   UNL     1      -0.514   0.489   0.628  0.00  0.00    -0.309 N 
ATOM     10  C   UNL     1      -0.062   1.706   1.038  0.00  0.00    +0.202 A 
ATOM     11  N   UNL     1      -1.057   2.598   1.296  0.00  0.00    -0.229 NA
ATOM     12  H   UNL     1      -4.886  -1.754  -0.460  0.00  0.00    +0.145 HD
ATOM     13  H   UNL     1      -6.130  -0.502  -0.107  0.00  0.00    +0.145 HD
ATOM     14  H   UNL     1      -2.519  -1.212  -0.113  0.00  0.00    +0.170 HD
ENDROOT
BRANCH   9  15
ATOM     15  C   UNL     1       0.263  -0.669   0.162  0.00  0.00    +0.118 C 
ATOM     16  C   UNL     1       0.549  -0.573  -1.337  0.00  0.00    +0.061 C 
ATOM     17  C   UNL     1       1.963  -1.129  -1.550  0.00  0.00    +0.126 C 
ATOM     18  C   UNL     1       2.711  -0.924  -0.217  0.00  0.00    +0.070 C 
ATOM     19  C   UNL     1       1.617  -0.753   0.790  0.00  0.00    -0.046 C 
ATOM     20  C   UNL     1       1.816  -0.810   2.114  0.00  0.00    +0.010 C 
BRANCH  17  21
ATOM     21  O   UNL     1       1.876  -2.499  -1.848  0.00  0.00    -0.391 OA
ATOM     22  H   UNL     1       2.764  -2.769  -2.202  0.00  0.00    +0.210 HD
ENDBRANCH  17  21
BRANCH  18  23
ATOM     23  C   UNL     1       3.653   0.292  -0.253  0.00  0.00    +0.166 C 
BRANCH  23  24
ATOM     24  O   UNL     1       2.954   1.459  -0.592  0.00  0.00    -0.394 OA
ATOM     25  H   UNL     1       3.622   2.192  -0.586  0.00  0.00    +0.209 HD
ENDBRANCH  23  24
ENDBRANCH  18  23
ENDBRANCH   9  15
TORSDOF 4
