REMARK  Name = 
REMARK  8 active torsions:
REMARK  status: ('A' for Active; 'I' for Inactive)
REMARK    1  A    between atoms: C_1  and  N_2
REMARK    2  A    between atoms: C_3  and  C_5
REMARK    3  A    between atoms: C_9  and  N_12
REMARK    4  A    between atoms: N_15  and  C_21
REMARK    5  A    between atoms: C_18  and  C_19
REMARK    6  A    between atoms: C_18  and  C_20
REMARK    7  A    between atoms: C_24  and  C_25
REMARK    8  A    between atoms: C_27  and  C_29
REMARK                            x       y       z     vdW  Elec       q    Type
REMARK                         _______ _______ _______ _____ _____    ______ ____
ROOT
ATOM      1  N   UNL     1       0.287   0.665  -0.383  0.00  0.00    -0.268 N 
ATOM      2  C   UNL     1      -0.865  -0.057   0.060  0.00  0.00    +0.152 C 
ATOM      3  S   UNL     1      -0.787  -1.538   0.767  0.00  0.00    -0.017 S 
ATOM      4  N   UNL     1      -2.030   0.759   0.070  0.00  0.00    -0.220 N 
ATOM      5  C   UNL     1      -1.585   2.033  -0.385  0.00  0.00    +0.249 C 
ATOM      6  O   UNL     1      -2.355   3.018  -0.546  0.00  0.00    -0.272 OA
ATOM      7  C   UNL     1      -0.109   2.051  -0.678  0.00  0.00    +0.112 C 
ATOM      8  C   UNL     1       0.145   2.389  -2.154  0.00  0.00    +0.042 C 
ATOM      9  C   UNL     1       0.606   3.039   0.256  0.00  0.00    +0.042 C 
ENDROOT
BRANCH   1  14
ATOM     10  C   UNL     1       4.292  -0.739  -0.131  0.00  0.00    +0.072 A 
ATOM     11  C   UNL     1       3.579  -0.404   1.038  0.00  0.00    +0.137 A 
ATOM     12  F   UNL     1       4.166  -0.465   2.260  0.00  0.00    -0.205 F 
ATOM     13  C   UNL     1       2.260   0.053   0.949  0.00  0.00    +0.062 A 
ATOM     14  C   UNL     1       1.639   0.191  -0.298  0.00  0.00    +0.039 A 
ATOM     15  C   UNL     1       2.347  -0.128  -1.462  0.00  0.00    +0.024 A 
ATOM     16  C   UNL     1       3.666  -0.584  -1.380  0.00  0.00    +0.018 A 
BRANCH  10  19
ATOM     17  C   UNL     1       7.535  -2.437   1.157  0.00  0.00    +0.128 C 
ATOM     18  N   UNL     1       6.133  -2.068   1.004  0.00  0.00    -0.314 N 
ATOM     19  C   UNL     1       5.689  -1.227  -0.071  0.00  0.00    +0.247 C 
ATOM     20  O   UNL     1       6.489  -0.923  -0.997  0.00  0.00    -0.270 OA
ATOM     21  H   UNL     1       5.439  -2.472   1.671  0.00  0.00    +0.149 HD
ENDBRANCH  10  19
ENDBRANCH   1  14
BRANCH   4  22
ATOM     22  C   UNL     1      -3.377   0.388   0.410  0.00  0.00    +0.044 A 
ATOM     23  C   UNL     1      -4.159   1.232   1.207  0.00  0.00    +0.025 A 
ATOM     24  C   UNL     1      -5.467   0.878   1.537  0.00  0.00    +0.021 A 
ATOM     25  C   UNL     1      -6.017  -0.323   1.071  0.00  0.00    +0.064 A 
ATOM     26  C   UNL     1      -5.244  -1.187   0.258  0.00  0.00    +0.074 A 
ATOM     27  C   UNL     1      -3.925  -0.813  -0.067  0.00  0.00    +0.037 A 
BRANCH  26  28
ATOM     28  C   UNL     1      -5.822  -2.488  -0.263  0.00  0.00    +0.419 C 
ATOM     29  F   UNL     1      -6.204  -3.285   0.800  0.00  0.00    -0.166 F 
ATOM     30  F   UNL     1      -4.906  -3.192  -1.026  0.00  0.00    -0.166 F 
ATOM     31  F   UNL     1      -6.928  -2.221  -1.050  0.00  0.00    -0.166 F 
ENDBRANCH  26  28
BRANCH  25  32
ATOM     32  C   UNL     1      -7.376  -0.644   1.438  0.00  0.00    +0.100 C 
ATOM     33  N   UNL     1      -8.465  -0.901   1.733  0.00  0.00    -0.191 NA
ENDBRANCH  25  32
ENDBRANCH   4  22
TORSDOF 5
