REMARK  Name = 
REMARK  6 active torsions:
REMARK  status: ('A' for Active; 'I' for Inactive)
REMARK    1  A    between atoms: C_1  and  N_2
REMARK    2  A    between atoms: N_2  and  C_3
REMARK    3  A    between atoms: C_3  and  C_4
REMARK    4  A    between atoms: C_3  and  C_5
REMARK    5  A    between atoms: C_5  and  O_6
REMARK    6  A    between atoms: C_5  and  C_7
REMARK                            x       y       z     vdW  Elec       q    Type
REMARK                         _______ _______ _______ _____ _____    ______ ____
ROOT
ATOM      1  C   UNL     1      -0.115   0.261  -1.270  0.00  0.00    +0.161 C 
ENDROOT
BRANCH   1   2
ATOM      2  C   UNL     1       1.117   0.137  -0.396  0.00  0.00    -0.018 A 
ATOM      3  C   UNL     1       1.711  -1.118  -0.168  0.00  0.00    +0.006 A 
ATOM      4  C   UNL     1       2.830  -1.230   0.662  0.00  0.00    +0.000 A 
ATOM      5  C   UNL     1       3.363  -0.093   1.277  0.00  0.00    +0.000 A 
ATOM      6  C   UNL     1       2.775   1.156   1.064  0.00  0.00    +0.000 A 
ATOM      7  C   UNL     1       1.655   1.273   0.235  0.00  0.00    +0.006 A 
ENDBRANCH   1   2
BRANCH   1   8
ATOM      8  C   UNL     1      -1.361  -0.285  -0.539  0.00  0.00    +0.083 C 
ATOM      9  C   UNL     1      -2.615  -0.146  -1.425  0.00  0.00    +0.027 C 
BRANCH   8  11
ATOM     10  C   UNL     1      -2.240  -0.367   1.739  0.00  0.00    +0.101 C 
ATOM     11  N   UNL     1      -1.530   0.435   0.740  0.00  0.00    -0.314 NA
ATOM     12  H   UNL     1      -2.054   1.329   0.590  0.00  0.00    +0.122 HD
ENDBRANCH   8  11
ENDBRANCH   1   8
BRANCH   1  13
ATOM     13  O   UNL     1       0.083  -0.447  -2.469  0.00  0.00    -0.386 OA
ATOM     14  H   UNL     1       0.723   0.084  -3.012  0.00  0.00    +0.210 HD
ENDBRANCH   1  13
TORSDOF 4
