REMARK  Name = 
REMARK  7 active torsions:
REMARK  status: ('A' for Active; 'I' for Inactive)
REMARK    1  A    between atoms: C_1  and  N_2
REMARK    2  A    between atoms: N_2  and  C_3
REMARK    3  A    between atoms: C_3  and  C_4
REMARK    4  A    between atoms: C_4  and  O_5
REMARK    5  A    between atoms: C_4  and  C_6
REMARK    6  A    between atoms: C_8  and  O_9
REMARK    7  A    between atoms: C_10  and  O_11
REMARK                            x       y       z     vdW  Elec       q    Type
REMARK                         _______ _______ _______ _____ _____    ______ ____
ROOT
ATOM      1  C   UNL     1      -0.571   0.004   0.378  0.00  0.00    -0.014 A 
ATOM      2  C   UNL     1      -1.480   0.869   1.012  0.00  0.00    +0.055 A 
ATOM      3  C   UNL     1      -2.848   0.815   0.708  0.00  0.00    +0.159 A 
ATOM      4  C   UNL     1      -3.317  -0.107  -0.235  0.00  0.00    +0.158 A 
ATOM      5  C   UNL     1      -2.418  -0.973  -0.870  0.00  0.00    +0.049 A 
ATOM      6  C   UNL     1      -1.055  -0.919  -0.567  0.00  0.00    +0.010 A 
ENDROOT
BRANCH   3   7
ATOM      7  O   UNL     1      -3.745   1.675   1.338  0.00  0.00    -0.503 OA
ATOM      8  H   UNL     1      -3.437   2.354   2.024  0.00  0.00    +0.292 HD
ENDBRANCH   3   7
BRANCH   4   9
ATOM      9  O   UNL     1      -4.678  -0.158  -0.535  0.00  0.00    -0.503 OA
ATOM     10  H   UNL     1      -5.047  -0.815  -1.213  0.00  0.00    +0.292 HD
ENDBRANCH   4   9
BRANCH   1  11
ATOM     11  C   UNL     1       0.907   0.071   0.716  0.00  0.00    +0.158 C 
BRANCH  11  12
ATOM     12  O   UNL     1       1.337  -1.137   1.293  0.00  0.00    -0.386 OA
ATOM     13  H   UNL     1       1.298  -1.841   0.596  0.00  0.00    +0.210 HD
ENDBRANCH  11  12
BRANCH  11  14
ATOM     14  C   UNL     1       1.754   0.449  -0.516  0.00  0.00    +0.116 C 
BRANCH  14  16
ATOM     15  C   UNL     1       4.036  -0.374  -0.355  0.00  0.00    +0.101 C 
ATOM     16  N   UNL     1       3.137   0.757  -0.114  0.00  0.00    -0.316 NA
ATOM     17  H   UNL     1       3.481   1.552  -0.703  0.00  0.00    +0.122 HD
ENDBRANCH  14  16
ENDBRANCH  11  14
ENDBRANCH   1  11
TORSDOF 6
