REMARK  Name = 
REMARK  0 active torsions:
REMARK  status: ('A' for Active; 'I' for Inactive)
REMARK                            x       y       z     vdW  Elec       q    Type
REMARK                         _______ _______ _______ _____ _____    ______ ____
ROOT
ATOM      1  N   UNL     1      -1.658   2.897   1.506  0.00  0.00    -0.331 N 
ATOM      2  C   UNL     1      -0.432   2.445   0.933  0.00  0.00    +0.181 C 
ATOM      3  N   UNL     1       0.351   3.233   0.284  0.00  0.00    -0.254 NA
ATOM      4  C   UNL     1       1.493   2.481  -0.223  0.00  0.00    +0.172 C 
ATOM      5  C   UNL     1       1.314   1.052   0.335  0.00  0.00    +0.133 C 
ATOM      6  N   UNL     1       0.018   1.102   1.007  0.00  0.00    -0.264 N 
ATOM      7  C   UNL     1      -0.841  -0.014   1.253  0.00  0.00    +0.040 A 
ATOM      8  C   UNL     1      -1.139  -0.405   2.564  0.00  0.00    +0.024 A 
ATOM      9  C   UNL     1      -1.988  -1.493   2.791  0.00  0.00    +0.002 A 
ATOM     10  C   UNL     1      -2.540  -2.188   1.710  0.00  0.00    +0.000 A 
ATOM     11  C   UNL     1      -2.248  -1.794   0.400  0.00  0.00    +0.006 A 
ATOM     12  C   UNL     1      -1.406  -0.695   0.168  0.00  0.00    -0.022 A 
ATOM     13  C   UNL     1      -1.053  -0.256  -1.224  0.00  0.00    +0.072 C 
ATOM     14  C   UNL     1       0.392  -0.582  -1.503  0.00  0.00    -0.038 A 
ATOM     15  C   UNL     1       0.676  -1.525  -2.509  0.00  0.00    +0.004 A 
ATOM     16  C   UNL     1       1.990  -1.889  -2.796  0.00  0.00    +0.000 A 
ATOM     17  C   UNL     1       3.042  -1.321  -2.084  0.00  0.00    +0.000 A 
ATOM     18  C   UNL     1       2.784  -0.390  -1.079  0.00  0.00    +0.006 A 
ATOM     19  C   UNL     1       1.466  -0.011  -0.756  0.00  0.00    -0.021 A 
ATOM     20  H   UNL     1      -2.280   2.241   2.028  0.00  0.00    +0.145 HD
ATOM     21  H   UNL     1      -1.946   3.897   1.411  0.00  0.00    +0.145 HD
ENDROOT
TORSDOF 0
