REMARK  Name = 
REMARK  13 active torsions:
REMARK  status: ('A' for Active; 'I' for Inactive)
REMARK    1  A    between atoms: C_1  and  O_2
REMARK    2  A    between atoms: O_2  and  C_3
REMARK    3  A    between atoms: C_12  and  O_13
REMARK    4  A    between atoms: C_17  and  O_18
REMARK    5  A    between atoms: C_17  and  C_31
REMARK    6  A    between atoms: C_20  and  O_21
REMARK    7  A    between atoms: O_21  and  C_22
REMARK    8  A    between atoms: C_24  and  N_25
REMARK    9  A    between atoms: C_26  and  O_27
REMARK   10  A    between atoms: C_28  and  C_29
REMARK   11  A    between atoms: C_31  and  C_33
REMARK   12  A    between atoms: C_33  and  O_34
REMARK   13  A    between atoms: C_35  and  O_36
REMARK                            x       y       z     vdW  Elec       q    Type
REMARK                         _______ _______ _______ _____ _____    ______ ____
ROOT
ATOM      1  C   UNL     1       5.584   2.599  -0.637  0.00  0.00    +0.132 A 
ATOM      2  C   UNL     1       6.939   2.569  -0.256  0.00  0.00    +0.046 A 
ATOM      3  C   UNL     1       7.486   1.430   0.327  0.00  0.00    +0.004 A 
ATOM      4  C   UNL     1       6.695   0.306   0.539  0.00  0.00    +0.012 A 
ATOM      5  C   UNL     1       5.338   0.305   0.170  0.00  0.00    +0.037 A 
ATOM      6  C   UNL     1       4.772   1.454  -0.421  0.00  0.00    +0.075 A 
ATOM      7  C   UNL     1       3.334   1.432  -0.806  0.00  0.00    +0.202 C 
ATOM      8  O   UNL     1       2.849   2.412  -1.434  0.00  0.00    -0.286 OA
ATOM      9  C   UNL     1       2.466   0.262  -0.468  0.00  0.00    +0.078 A 
ATOM     10  C   UNL     1       1.070   0.294  -0.718  0.00  0.00    +0.134 A 
ATOM     11  C   UNL     1       0.259  -0.807  -0.345  0.00  0.00    +0.030 A 
ATOM     12  C   UNL     1       0.870  -2.004   0.072  0.00  0.00    +0.007 A 
ATOM     13  C   UNL     1      -0.010  -3.233   0.233  0.00  0.00    +0.082 C 
ATOM     14  C   UNL     1      -1.121  -3.301  -0.861  0.00  0.00    +0.133 C 
ATOM     15  C   UNL     1      -1.845  -1.928  -1.091  0.00  0.00    +0.079 C 
ATOM     16  C   UNL     1      -1.264  -0.783  -0.246  0.00  0.00    +0.158 C 
ATOM     17  C   UNL     1       2.247  -2.025   0.376  0.00  0.00    +0.132 A 
ATOM     18  C   UNL     1       3.050  -0.893   0.102  0.00  0.00    +0.078 A 
ATOM     19  C   UNL     1       4.512  -0.901   0.398  0.00  0.00    +0.198 C 
ATOM     20  O   UNL     1       5.067  -1.942   0.845  0.00  0.00    -0.286 OA
ENDROOT
BRANCH   1  22
ATOM     21  C   UNL     1       5.735   4.954  -1.491  0.00  0.00    +0.277 C 
ATOM     22  O   UNL     1       5.026   3.748  -1.223  0.00  0.00    -0.494 OA
ENDBRANCH   1  22
BRANCH  10  23
ATOM     23  O   UNL     1       0.531   1.406  -1.368  0.00  0.00    -0.506 OA
ATOM     24  H   UNL     1      -0.232   1.341  -2.028  0.00  0.00    +0.292 HD
ENDBRANCH  10  23
BRANCH  14  25
ATOM     25  O   UNL     1      -0.533  -3.716  -2.075  0.00  0.00    -0.381 OA
ATOM     26  H   UNL     1       0.142  -3.038  -2.342  0.00  0.00    +0.211 HD
ENDBRANCH  14  25
BRANCH  14  27
ATOM     27  C   UNL     1      -2.144  -4.347  -0.434  0.00  0.00    +0.190 C 
ATOM     28  O   UNL     1      -2.783  -4.178   0.596  0.00  0.00    -0.292 OA
BRANCH  27  29
ATOM     29  C   UNL     1      -2.379  -5.605  -1.231  0.00  0.00    +0.233 C 
BRANCH  29  30
ATOM     30  O   UNL     1      -1.248  -6.431  -1.176  0.00  0.00    -0.387 OA
ATOM     31  H   UNL     1      -1.241  -6.839  -0.270  0.00  0.00    +0.210 HD
ENDBRANCH  29  30
ENDBRANCH  27  29
ENDBRANCH  14  27
BRANCH  17  32
ATOM     32  O   UNL     1       2.831  -3.146   0.978  0.00  0.00    -0.506 OA
ATOM     33  H   UNL     1       2.306  -3.906   1.388  0.00  0.00    +0.292 HD
ENDBRANCH  17  32
BRANCH  16  34
ATOM     34  O   UNL     1      -1.828   0.452  -0.656  0.00  0.00    -0.343 OA
BRANCH  34  35
ATOM     35  C   UNL     1      -2.962   0.817   0.112  0.00  0.00    +0.253 C 
ATOM     36  C   UNL     1      -2.498   1.679   1.298  0.00  0.00    +0.082 C 
ATOM     37  C   UNL     1      -3.698   2.159   2.124  0.00  0.00    +0.087 C 
ATOM     38  C   UNL     1      -4.735   2.828   1.200  0.00  0.00    +0.160 C 
ATOM     39  C   UNL     1      -5.015   1.984  -0.075  0.00  0.00    +0.148 C 
ATOM     40  C   UNL     1      -6.010   0.831   0.144  0.00  0.00    +0.041 C 
ATOM     41  O   UNL     1      -3.825   1.562  -0.732  0.00  0.00    -0.346 OA
BRANCH  37  42
ATOM     42  N   UNL     1      -4.294   1.043   2.863  0.00  0.00    -0.325 NA
ATOM     43  H   UNL     1      -5.056   1.419   3.472  0.00  0.00    +0.119 HD
ATOM     44  H   UNL     1      -3.573   0.654   3.513  0.00  0.00    +0.119 HD
ENDBRANCH  37  42
BRANCH  38  45
ATOM     45  O   UNL     1      -4.246   4.091   0.823  0.00  0.00    -0.388 OA
ATOM     46  H   UNL     1      -5.025   4.623   0.510  0.00  0.00    +0.210 HD
ENDBRANCH  38  45
ENDBRANCH  34  35
ENDBRANCH  16  34
TORSDOF 11
