REMARK  Name = 
REMARK  5 active torsions:
REMARK  status: ('A' for Active; 'I' for Inactive)
REMARK    1  A    between atoms: C_10  and  C_11
REMARK    2  A    between atoms: C_17  and  C_27
REMARK    3  A    between atoms: C_25  and  C_26
REMARK    4  A    between atoms: C_27  and  O_29
REMARK    5  A    between atoms: O_29  and  C_30
REMARK                            x       y       z     vdW  Elec       q    Type
REMARK                         _______ _______ _______ _____ _____    ______ ____
ROOT
ATOM      1  C   UNL     1       1.101   0.507   0.296  0.00  0.00    +0.006 C 
ATOM      2  C   UNL     1       1.969   1.778   0.318  0.00  0.00    +0.008 C 
ATOM      3  C   UNL     1       3.408   1.327   0.016  0.00  0.00    +0.049 C 
ATOM      4  C   UNL     1       3.359  -0.208  -0.130  0.00  0.00    +0.120 C 
ATOM      5  C   UNL     1       3.788  -0.926   1.193  0.00  0.00    +0.060 C 
ATOM      6  C   UNL     1       4.614  -2.139   0.753  0.00  0.00    +0.124 C 
ATOM      7  C   UNL     1       4.977  -1.776  -0.631  0.00  0.00    +0.308 C 
ATOM      8  O   UNL     1       5.807  -2.409  -1.333  0.00  0.00    -0.251 OA
ATOM      9  O   UNL     1       4.299  -0.668  -1.092  0.00  0.00    -0.457 OA
ATOM     10  C   UNL     1       1.893  -0.474  -0.595  0.00  0.00    +0.013 C 
ATOM     11  C   UNL     1       1.770  -0.136  -2.121  0.00  0.00    +0.015 C 
ATOM     12  C   UNL     1       1.348  -1.906  -0.387  0.00  0.00    +0.045 C 
ATOM     13  C   UNL     1      -0.179  -1.974  -0.583  0.00  0.00    +0.153 C 
ATOM     14  O   UNL     1      -0.816  -1.620   0.626  0.00  0.00    -0.364 OA
ATOM     15  C   UNL     1      -1.031  -0.731  -0.450  0.00  0.00    +0.109 C 
ATOM     16  C   UNL     1      -0.378   0.662  -0.169  0.00  0.00    +0.042 C 
ATOM     17  C   UNL     1      -1.331   1.561   0.713  0.00  0.00    +0.108 C 
ATOM     18  C   UNL     1      -2.554   0.816   1.299  0.00  0.00    +0.046 C 
ATOM     19  C   UNL     1      -3.307   0.005   0.262  0.00  0.00    -0.057 C 
ATOM     20  C   UNL     1      -4.624  -0.201   0.438  0.00  0.00    +0.046 C 
ATOM     21  C   UNL     1      -5.367  -1.195  -0.353  0.00  0.00    +0.156 C 
ATOM     22  O   UNL     1      -6.620  -1.261  -0.242  0.00  0.00    -0.293 OA
ATOM     23  C   UNL     1      -4.659  -2.135  -1.285  0.00  0.00    +0.080 C 
ATOM     24  C   UNL     1      -3.141  -2.145  -1.041  0.00  0.00    +0.022 C 
ATOM     25  C   UNL     1      -2.545  -0.715  -0.849  0.00  0.00    +0.021 C 
ATOM     26  C   UNL     1      -2.699   0.079  -2.169  0.00  0.00    +0.019 C 
ENDROOT
BRANCH  17  27
ATOM     27  C   UNL     1      -0.648   2.329   1.813  0.00  0.00    +0.311 C 
ATOM     28  O   UNL     1      -0.293   1.743   2.874  0.00  0.00    -0.251 OA
BRANCH  27  29
ATOM     29  O   UNL     1      -0.410   3.697   1.647  0.00  0.00    -0.468 OA
ATOM     30  C   UNL     1       0.199   4.497   2.653  0.00  0.00    +0.280 C 
ENDBRANCH  27  29
ENDBRANCH  17  27
TORSDOF 2
