REMARK  Name = 
REMARK  14 active torsions:
REMARK  status: ('A' for Active; 'I' for Inactive)
REMARK    1  A    between atoms: C_3  and  O_4
REMARK    2  A    between atoms: C_5  and  C_6
REMARK    3  A    between atoms: C_7  and  C_8
REMARK    4  A    between atoms: C_8  and  O_9
REMARK    5  A    between atoms: C_8  and  C_10
REMARK    6  A    between atoms: C_10  and  C_11
REMARK    7  A    between atoms: C_11  and  C_12
REMARK    8  A    between atoms: C_12  and  C_13
REMARK    9  A    between atoms: C_13  and  C_14
REMARK   10  A    between atoms: C_19  and  C_20
REMARK   11  A    between atoms: C_20  and  C_21
REMARK   12  A    between atoms: C_21  and  C_22
REMARK   13  A    between atoms: C_22  and  C_23
REMARK   14  A    between atoms: C_23  and  O_24
REMARK                            x       y       z     vdW  Elec       q    Type
REMARK                         _______ _______ _______ _____ _____    ______ ____
ROOT
ATOM      1  C   UNL     1      -2.243   0.287  -1.365  0.00  0.00    +0.180 C 
ATOM      2  C   UNL     1      -1.782   1.740  -1.471  0.00  0.00    +0.076 C 
ATOM      3  C   UNL     1      -0.342   1.758  -0.965  0.00  0.00    +0.125 C 
ATOM      4  C   UNL     1      -0.270   0.616   0.045  0.00  0.00    +0.047 C 
ATOM      5  C   UNL     1      -1.188  -0.470  -0.541  0.00  0.00    +0.046 C 
ATOM      6  C   UNL     1      -1.961  -1.258   0.533  0.00  0.00    +0.081 C 
ATOM      7  C   UNL     1      -3.325  -0.686   0.437  0.00  0.00    +0.095 C 
ATOM      8  O   UNL     1      -3.451   0.180  -0.632  0.00  0.00    -0.493 OA
ATOM      9  C   UNL     1      -4.321  -0.969   1.282  0.00  0.00    +0.014 C 
ENDROOT
BRANCH   3  10
ATOM     10  O   UNL     1      -0.037   2.985  -0.354  0.00  0.00    -0.391 OA
ATOM     11  H   UNL     1       0.078   3.643  -1.089  0.00  0.00    +0.210 HD
ENDBRANCH   3  10
BRANCH   4  12
ATOM     12  C   UNL     1       1.144   0.123   0.256  0.00  0.00    -0.022 C 
ATOM     13  C   UNL     1       2.032   0.840   0.964  0.00  0.00    -0.000 C 
BRANCH  13  14
ATOM     14  C   UNL     1       3.442   0.356   1.204  0.00  0.00    +0.137 C 
BRANCH  14  15
ATOM     15  O   UNL     1       3.410  -0.931   1.766  0.00  0.00    -0.388 OA
ATOM     16  H   UNL     1       3.134  -0.822   2.716  0.00  0.00    +0.210 HD
ENDBRANCH  14  15
BRANCH  14  17
ATOM     17  C   UNL     1       4.239   0.341  -0.115  0.00  0.00    +0.035 C 
BRANCH  17  18
ATOM     18  C   UNL     1       5.763   0.260   0.088  0.00  0.00    +0.003 C 
BRANCH  18  19
ATOM     19  C   UNL     1       6.239  -1.138   0.521  0.00  0.00    -0.000 C 
BRANCH  19  20
ATOM     20  C   UNL     1       7.770  -1.236   0.608  0.00  0.00    -0.003 C 
ATOM     21  C   UNL     1       8.438  -1.308  -0.764  0.00  0.00    +0.004 C 
ENDBRANCH  19  20
ENDBRANCH  18  19
ENDBRANCH  17  18
ENDBRANCH  14  17
ENDBRANCH  13  14
ENDBRANCH   4  12
BRANCH   9  22
ATOM     22  C   UNL     1      -5.681  -0.347   1.152  0.00  0.00    +0.031 C 
BRANCH  22  23
ATOM     23  C   UNL     1      -6.471  -0.978  -0.005  0.00  0.00    +0.015 C 
BRANCH  23  24
ATOM     24  C   UNL     1      -7.900  -0.428  -0.095  0.00  0.00    +0.121 C 
BRANCH  24  25
ATOM     25  C   UNL     1      -7.914   1.003  -0.539  0.00  0.00    +0.305 C 
ATOM     26  O   UNL     1      -8.093   1.924   0.302  0.00  0.00    -0.251 OA
BRANCH  25  27
ATOM     27  O   UNL     1      -7.701   1.315  -1.878  0.00  0.00    -0.481 OA
ATOM     28  H   UNL     1      -7.699   2.277  -2.193  0.00  0.00    +0.295 HD
ENDBRANCH  25  27
ENDBRANCH  24  25
ENDBRANCH  23  24
ENDBRANCH  22  23
ENDBRANCH   9  22
TORSDOF 13
