REMARK  Name = 
REMARK  13 active torsions:
REMARK  status: ('A' for Active; 'I' for Inactive)
REMARK    1  A    between atoms: C_1  and  C_2
REMARK    2  A    between atoms: C_2  and  C_3
REMARK    3  A    between atoms: C_3  and  C_4
REMARK    4  A    between atoms: C_4  and  C_5
REMARK    5  A    between atoms: C_8  and  C_9
REMARK    6  A    between atoms: C_10  and  C_11
REMARK    7  A    between atoms: C_10  and  C_17
REMARK    8  A    between atoms: C_11  and  C_12
REMARK    9  A    between atoms: C_17  and  O_18
REMARK   10  A    between atoms: N_20  and  C_21
REMARK   11  A    between atoms: C_21  and  C_22
REMARK   12  A    between atoms: C_25  and  C_28
REMARK   13  A    between atoms: C_28  and  O_29
REMARK                            x       y       z     vdW  Elec       q    Type
REMARK                         _______ _______ _______ _____ _____    ______ ____
ROOT
ATOM      1  C   UNL     1      -0.485   1.458   1.497  0.00  0.00    +0.110 A 
ATOM      2  N   UNL     1       0.267   1.346   2.614  0.00  0.00    -0.240 NA
ATOM      3  C   UNL     1       0.963   0.206   2.441  0.00  0.00    +0.138 A 
ATOM      4  C   UNL     1       0.647  -0.336   1.218  0.00  0.00    +0.062 A 
ATOM      5  N   UNL     1      -0.276   0.445   0.620  0.00  0.00    -0.324 N 
ENDROOT
BRANCH   4   6
ATOM      6  C   UNL     1       1.150  -1.618   0.700  0.00  0.00    +0.038 C 
ATOM      7  C   UNL     1       1.975  -1.728  -0.361  0.00  0.00    +0.043 C 
BRANCH   7   8
ATOM      8  C   UNL     1       2.359  -3.078  -0.844  0.00  0.00    +0.333 C 
ATOM      9  O   UNL     1       3.120  -3.202  -1.840  0.00  0.00    -0.245 OA
BRANCH   8  10
ATOM     10  O   UNL     1       1.876  -4.222  -0.212  0.00  0.00    -0.477 OA
ATOM     11  H   UNL     1       2.130  -5.146  -0.543  0.00  0.00    +0.295 HD
ENDBRANCH   8  10
ENDBRANCH   7   8
BRANCH   7  12
ATOM     12  C   UNL     1       2.590  -0.514  -1.031  0.00  0.00    +0.084 C 
BRANCH  12  13
ATOM     13  C   UNL     1       3.994  -0.309  -0.554  0.00  0.00    -0.006 A 
ATOM     14  C   UNL     1       4.368   0.234   0.670  0.00  0.00    +0.011 A 
ATOM     15  C   UNL     1       5.755   0.262   0.859  0.00  0.00    +0.008 A 
ATOM     16  C   UNL     1       6.474  -0.263  -0.209  0.00  0.00    +0.045 A 
ATOM     17  S   UNL     1       5.383  -0.763  -1.387  0.00  0.00    -0.101 S 
ENDBRANCH  12  13
ENDBRANCH   7  12
ENDBRANCH   4   6
BRANCH   1  18
ATOM     18  C   UNL     1      -1.389   2.634   1.259  0.00  0.00    +0.074 C 
BRANCH  18  19
ATOM     19  C   UNL     1      -0.692   3.675   0.378  0.00  0.00    +0.007 C 
BRANCH  19  21
ATOM     20  C   UNL     1      -0.919   5.915  -0.760  0.00  0.00    +0.004 C 
ATOM     21  C   UNL     1      -1.612   4.871   0.111  0.00  0.00    -0.003 C 
ENDBRANCH  19  21
ENDBRANCH  18  19
ENDBRANCH   1  18
BRANCH   5  22
ATOM     22  C   UNL     1      -0.984   0.170  -0.637  0.00  0.00    +0.158 C 
BRANCH  22  23
ATOM     23  C   UNL     1      -1.919  -0.998  -0.467  0.00  0.00    -0.028 A 
ATOM     24  C   UNL     1      -1.626  -2.238  -1.056  0.00  0.00    +0.006 A 
ATOM     25  C   UNL     1      -2.475  -3.331  -0.864  0.00  0.00    +0.015 A 
ATOM     26  C   UNL     1      -3.635  -3.203  -0.079  0.00  0.00    +0.059 A 
ATOM     27  C   UNL     1      -3.927  -1.959   0.507  0.00  0.00    +0.015 A 
ATOM     28  C   UNL     1      -3.075  -0.868   0.316  0.00  0.00    +0.006 A 
BRANCH  26  29
ATOM     29  C   UNL     1      -4.536  -4.358   0.131  0.00  0.00    +0.337 C 
ATOM     30  O   UNL     1      -4.280  -5.472  -0.402  0.00  0.00    -0.245 OA
BRANCH  29  31
ATOM     31  O   UNL     1      -5.677  -4.224   0.919  0.00  0.00    -0.477 OA
ATOM     32  H   UNL     1      -6.300  -5.009   1.070  0.00  0.00    +0.295 HD
ENDBRANCH  29  31
ENDBRANCH  26  29
ENDBRANCH  22  23
ENDBRANCH   5  22
TORSDOF 12
