REMARK  Name = 
REMARK  6 active torsions:
REMARK  status: ('A' for Active; 'I' for Inactive)
REMARK    1  A    between atoms: C_14  and  C_18
REMARK    2  A    between atoms: N_16  and  C_17
REMARK    3  A    between atoms: N_20  and  CA_21
REMARK    4  A    between atoms: CA_21  and  CB_22
REMARK    5  A    between atoms: CA_21  and  C_23
REMARK    6  A    between atoms: C_23  and  O_24
REMARK                            x       y       z     vdW  Elec       q    Type
REMARK                         _______ _______ _______ _____ _____    ______ ____
ROOT
ATOM      1  C   UNK A   0       1.743  -1.237   0.506  0.00  0.00    +0.091 C 
ATOM      2  C   UNK A   0       3.213  -1.120   1.043  0.00  0.00    +0.061 C 
ATOM      3  C   UNK A   0       4.081  -0.371   0.078  0.00  0.00    -0.020 A 
ATOM      4  C   UNK A   0       5.464  -0.271  -0.039  0.00  0.00    +0.087 A 
ATOM      5  N   UNK A   0       5.781   0.650  -0.989  0.00  0.00    -0.360 N 
ATOM      6  C   UNK A   0       4.606   1.132  -1.441  0.00  0.00    +0.047 A 
ATOM      7  C   UNK A   0       4.370   2.131  -2.385  0.00  0.00    +0.026 A 
ATOM      8  C   UNK A   0       3.025   2.479  -2.642  0.00  0.00    +0.003 A 
ATOM      9  C   UNK A   0       1.964   1.840  -1.948  0.00  0.00    +0.009 A 
ATOM     10  C   UNK A   0       2.248   0.838  -0.987  0.00  0.00    -0.011 A 
ATOM     11  C   UNK A   0       3.576   0.528  -0.798  0.00  0.00    +0.010 A 
ATOM     12  C   UNK A   0       1.267   0.083  -0.154  0.00  0.00    -0.025 C 
ATOM     13  C   UNK A   0      -0.003   0.502  -0.028  0.00  0.00    -0.007 C 
ATOM     14  C   UNK A   0      -1.000  -0.209   0.843  0.00  0.00    +0.112 C 
ATOM     15  C   UNK A   0      -0.573  -1.653   1.112  0.00  0.00    +0.101 C 
ATOM     16  N   UNK A   0       0.822  -1.674   1.591  0.00  0.00    -0.297 NA
ATOM     17  C   UNK A   0       1.146  -3.035   2.060  0.00  0.00    +0.105 C 
ATOM     18  H   UNK A   0       6.739   0.943  -1.283  0.00  0.00    +0.165 HD
ENDROOT
BRANCH  14  19
ATOM     19  C   UNK A   0      -2.369  -0.178   0.215  0.00  0.00    +0.221 C 
ATOM     20  O   UNK A   0      -2.511  -0.522  -0.991  0.00  0.00    -0.275 OA
ATOM     21  N   ALA A   1      -3.513   0.197   0.997  0.00  0.00    -0.310 N 
ATOM     22  H   ALA A   1      -3.377   0.394   2.015  0.00  0.00    +0.149 HD
BRANCH  21  23
ATOM     23  CA  ALA A   1      -4.860   0.280   0.424  0.00  0.00    +0.095 C 
ATOM     24  CB  ALA A   1      -5.911   0.244   1.540  0.00  0.00    +0.030 C 
BRANCH  23  25
ATOM     25  C   ALA A   1      -4.993   1.564  -0.415  0.00  0.00    +0.177 C 
BRANCH  25  26
ATOM     26  O   ALA A   1      -6.247   1.628  -1.039  0.00  0.00    -0.393 OA
ATOM     27  H   ALA A   1      -6.225   0.977  -1.788  0.00  0.00    +0.209 HD
ENDBRANCH  25  26
ENDBRANCH  23  25
ENDBRANCH  21  23
ENDBRANCH  14  19
TORSDOF 4
