REMARK  Name = 
REMARK  10 active torsions:
REMARK  status: ('A' for Active; 'I' for Inactive)
REMARK    1  A    between atoms: C_1  and  S_2
REMARK    2  A    between atoms: S_2  and  O_3
REMARK    3  A    between atoms: C_13  and  C_14
REMARK    4  A    between atoms: C_18  and  N_19
REMARK    5  A    between atoms: C_18  and  C_42
REMARK    6  A    between atoms: C_20  and  C_22
REMARK    7  A    between atoms: N_24  and  C_25
REMARK    8  A    between atoms: C_40  and  O_41
REMARK    9  A    between atoms: C_42  and  C_43
REMARK   10  A    between atoms: C_42  and  C_44
REMARK                            x       y       z     vdW  Elec       q    Type
REMARK                         _______ _______ _______ _____ _____    ______ ____
ROOT
ATOM      1  C   UNL     1       1.067   0.069  -0.268  0.00  0.00    +0.228 C 
ATOM      2  S   UNL     1      -0.585  -0.448   0.143  0.00  0.00    +0.077 S 
ATOM      3  O   UNL     1      -0.945  -1.661  -0.670  0.00  0.00    -0.148 OA
ATOM      4  O   UNL     1      -0.661  -0.792   1.605  0.00  0.00    -0.148 OA
ENDROOT
BRANCH   2   5
ATOM      5  O   UNL     1      -1.665   0.794  -0.201  0.00  0.00    -0.254 OA
ATOM      6  H   UNL     1      -1.448   1.509   0.449  0.00  0.00    +0.244 HD
ENDBRANCH   2   5
TORSDOF 1
REMARK  Name = 
REMARK  10 active torsions:
REMARK  status: ('A' for Active; 'I' for Inactive)
REMARK    1  A    between atoms: C_1  and  S_2
REMARK    2  A    between atoms: S_2  and  O_3
REMARK    3  A    between atoms: C_13  and  C_14
REMARK    4  A    between atoms: C_18  and  N_19
REMARK    5  A    between atoms: C_18  and  C_42
REMARK    6  A    between atoms: C_20  and  C_22
REMARK    7  A    between atoms: N_24  and  C_25
REMARK    8  A    between atoms: C_40  and  O_41
REMARK    9  A    between atoms: C_42  and  C_43
REMARK   10  A    between atoms: C_42  and  C_44
REMARK                            x       y       z     vdW  Elec       q    Type
REMARK                         _______ _______ _______ _____ _____    ______ ____
ROOT
ATOM      1  N   UNL     1      -0.794   1.075   0.066  0.00  0.00    -0.280 N 
ATOM      2  C   UNL     1       0.268   0.139   0.313  0.00  0.00    +0.220 C 
ATOM      3  O   UNL     1       0.090  -0.831   1.102  0.00  0.00    -0.275 OA
ATOM      4  H   UNL     1      -0.617   1.835  -0.631  0.00  0.00    +0.152 HD
ENDROOT
BRANCH   2   5
ATOM      5  C   UNL     1       1.613   0.351  -0.343  0.00  0.00    +0.090 C 
ATOM      6  C   UNL     1       2.351   1.518   0.332  0.00  0.00    +0.097 C 
ATOM      7  N   UNL     1       3.643   1.785  -0.339  0.00  0.00    -0.301 NA
ATOM      8  C   UNL     1       4.250   2.984   0.268  0.00  0.00    +0.105 C 
ATOM      9  C   UNL     1       4.531   0.594  -0.234  0.00  0.00    +0.068 C 
ATOM     10  C   UNL     1       5.961   0.869  -0.818  0.00  0.00    +0.056 C 
ATOM     11  C   UNL     1       6.736  -0.411  -0.873  0.00  0.00    -0.021 A 
ATOM     12  C   UNL     1       8.100  -0.672  -0.971  0.00  0.00    +0.087 A 
ATOM     13  N   UNL     1       8.305  -2.013  -1.075  0.00  0.00    -0.360 N 
ATOM     14  C   UNL     1       7.080  -2.577  -1.061  0.00  0.00    +0.047 A 
ATOM     15  C   UNL     1       6.730  -3.919  -1.200  0.00  0.00    +0.026 A 
ATOM     16  C   UNL     1       5.352  -4.231  -1.222  0.00  0.00    +0.002 A 
ATOM     17  C   UNL     1       4.373  -3.208  -1.113  0.00  0.00    +0.004 A 
ATOM     18  C   UNL     1       4.769  -1.858  -0.945  0.00  0.00    -0.033 A 
ATOM     19  C   UNL     1       6.128  -1.619  -0.943  0.00  0.00    +0.006 A 
ATOM     20  C   UNL     1       3.852  -0.636  -0.953  0.00  0.00    +0.038 C 
ATOM     21  C   UNL     1       2.484  -0.918  -0.313  0.00  0.00    +0.023 C 
ATOM     22  H   UNL     1       9.222  -2.500  -1.176  0.00  0.00    +0.165 HD
ENDBRANCH   2   5
BRANCH   1  35
ATOM     23  C   UNL     1      -4.958  -0.914   0.404  0.00  0.00    +0.156 C 
ATOM     24  C   UNL     1      -4.864  -2.437   0.546  0.00  0.00    +0.031 C 
ATOM     25  C   UNL     1      -6.266  -2.957   0.218  0.00  0.00    +0.021 C 
ATOM     26  C   UNL     1      -6.946  -1.863  -0.604  0.00  0.00    +0.108 C 
ATOM     27  N   UNL     1      -6.136  -0.674  -0.408  0.00  0.00    -0.290 N 
ATOM     28  C   UNL     1      -6.385   0.584  -1.054  0.00  0.00    +0.236 C 
ATOM     29  O   UNL     1      -7.501   0.800  -1.601  0.00  0.00    -0.274 OA
ATOM     30  C   UNL     1      -5.318   1.656  -1.072  0.00  0.00    +0.164 C 
ATOM     31  C   UNL     1      -5.087   2.175  -2.493  0.00  0.00    +0.038 C 
ATOM     32  N   UNL     1      -4.052   1.148  -0.522  0.00  0.00    -0.234 N 
ATOM     33  C   UNL     1      -3.054   1.917   0.078  0.00  0.00    +0.271 C 
ATOM     34  O   UNL     1      -2.978   3.171  -0.032  0.00  0.00    -0.270 OA
ATOM     35  C   UNL     1      -2.081   1.041   0.775  0.00  0.00    +0.220 C 
ATOM     36  O   UNL     1      -2.631  -0.271   0.674  0.00  0.00    -0.298 OA
ATOM     37  C   UNL     1      -3.727  -0.243  -0.240  0.00  0.00    +0.269 C 
BRANCH  35  38
ATOM     38  C   UNL     1      -1.891   1.418   2.281  0.00  0.00    +0.043 C 
ATOM     39  C   UNL     1      -3.198   1.317   3.084  0.00  0.00    +0.012 C 
ATOM     40  C   UNL     1      -1.254   2.805   2.481  0.00  0.00    +0.012 C 
ENDBRANCH  35  38
BRANCH  37  41
ATOM     41  O   UNL     1      -3.336  -0.888  -1.428  0.00  0.00    -0.348 OA
ATOM     42  H   UNL     1      -4.089  -0.831  -2.071  0.00  0.00    +0.214 HD
ENDBRANCH  37  41
ENDBRANCH   1  35
TORSDOF 4
