REMARK  Name = 
REMARK  11 active torsions:
REMARK  status: ('A' for Active; 'I' for Inactive)
REMARK    1  A    between atoms: C_1  and  C_2
REMARK    2  A    between atoms: C_2  and  C_3
REMARK    3  A    between atoms: C_2  and  C_4
REMARK    4  A    between atoms: C_4  and  C_5
REMARK    5  A    between atoms: C_4  and  C_6
REMARK    6  A    between atoms: C_7  and  C_8
REMARK    7  A    between atoms: C_8  and  C_9
REMARK    8  A    between atoms: C_8  and  C_10
REMARK    9  A    between atoms: C_18  and  C_19
REMARK   10  A    between atoms: C_20  and  C_21
REMARK   11  A    between atoms: C_24  and  O_25
REMARK                            x       y       z     vdW  Elec       q    Type
REMARK                         _______ _______ _______ _____ _____    ______ ____
ROOT
ATOM      1  C   UNL     1       1.511   1.036  -0.629  0.00  0.00    +0.002 C 
ATOM      2  C   UNL     1       1.191  -0.452  -0.946  0.00  0.00    +0.005 C 
ATOM      3  C   UNL     1      -0.316  -0.650  -0.734  0.00  0.00    +0.009 C 
ATOM      4  C   UNL     1      -0.854   0.767  -0.595  0.00  0.00    +0.021 C 
ATOM      5  C   UNL     1      -2.212   1.030   0.019  0.00  0.00    -0.066 C 
ATOM      6  C   UNL     1      -2.596   2.502   0.043  0.00  0.00    +0.031 C 
ATOM      7  C   UNL     1      -1.453   3.402   0.565  0.00  0.00    +0.005 C 
ATOM      8  C   UNL     1      -0.063   3.048  -0.016  0.00  0.00    +0.008 C 
ATOM      9  C   UNL     1       0.253   1.536   0.142  0.00  0.00    -0.022 C 
ATOM     10  C   UNL     1       0.326   1.144   1.652  0.00  0.00    +0.012 C 
ATOM     11  C   UNL     1      -3.079   0.032   0.285  0.00  0.00    -0.000 C 
ENDROOT
BRANCH  11  12
ATOM     12  C   UNL     1      -4.425   0.237   0.865  0.00  0.00    +0.004 C 
ATOM     13  C   UNL     1      -5.473  -0.594   0.669  0.00  0.00    -0.042 C 
ATOM     14  C   UNL     1      -6.690  -0.386   1.549  0.00  0.00    +0.066 C 
ATOM     15  C   UNL     1      -7.818  -1.398   1.297  0.00  0.00    +0.119 C 
ATOM     16  C   UNL     1      -7.236  -2.810   1.136  0.00  0.00    +0.036 C 
ATOM     17  C   UNL     1      -6.372  -2.913  -0.127  0.00  0.00    +0.037 C 
ATOM     18  C   UNL     1      -5.476  -1.710  -0.330  0.00  0.00    -0.051 C 
ATOM     19  C   UNL     1      -4.791  -1.602  -1.474  0.00  0.00    +0.012 C 
BRANCH  15  20
ATOM     20  O   UNL     1      -8.542  -1.025   0.152  0.00  0.00    -0.391 OA
ATOM     21  H   UNL     1      -9.384  -1.552   0.162  0.00  0.00    +0.210 HD
ENDBRANCH  15  20
ENDBRANCH  11  12
BRANCH   1  22
ATOM     22  C   UNL     1       2.906   1.194   0.056  0.00  0.00    +0.012 C 
ATOM     23  C   UNL     1       3.274   2.659   0.329  0.00  0.00    +0.012 C 
BRANCH  22  25
ATOM     24  C   UNL     1       4.666  -0.493  -0.488  0.00  0.00    -0.027 C 
ATOM     25  C   UNL     1       3.976   0.604  -0.837  0.00  0.00    -0.027 C 
BRANCH  24  26
ATOM     26  C   UNL     1       5.750  -1.066  -1.375  0.00  0.00    +0.011 C 
ATOM     27  C   UNL     1       5.540  -2.578  -1.535  0.00  0.00    +0.012 C 
BRANCH  26  29
ATOM     28  C   UNL     1       7.453   0.788  -0.963  0.00  0.00    +0.008 C 
ATOM     29  C   UNL     1       7.178  -0.721  -0.859  0.00  0.00    -0.011 C 
ATOM     30  C   UNL     1       7.449  -1.207   0.575  0.00  0.00    +0.008 C 
ENDBRANCH  26  29
ENDBRANCH  24  26
ENDBRANCH  22  25
ENDBRANCH   1  22
TORSDOF 6
