REMARK  Name = 
REMARK  7 active torsions:
REMARK  status: ('A' for Active; 'I' for Inactive)
REMARK    1  A    between atoms: C_8  and  C_9
REMARK    2  A    between atoms: C_9  and  C_10
REMARK    3  A    between atoms: C_19  and  C_20
REMARK    4  A    between atoms: C_19  and  N_21
REMARK    5  A    between atoms: C_22  and  C_24
REMARK    6  A    between atoms: N_26  and  C_27
REMARK    7  A    between atoms: C_42  and  O_43
REMARK                            x       y       z     vdW  Elec       q    Type
REMARK                         _______ _______ _______ _____ _____    ______ ____
ROOT
ATOM      1  C   UNL     1      -3.028  -3.130   1.051  0.00  0.00    +0.156 C 
ATOM      2  C   UNL     1      -2.382  -4.496   0.814  0.00  0.00    +0.031 C 
ATOM      3  C   UNL     1      -3.544  -5.491   0.771  0.00  0.00    +0.021 C 
ATOM      4  C   UNL     1      -4.784  -4.673   0.425  0.00  0.00    +0.108 C 
ATOM      5  N   UNL     1      -4.422  -3.294   0.691  0.00  0.00    -0.290 N 
ATOM      6  C   UNL     1      -5.289  -2.179   0.435  0.00  0.00    +0.237 C 
ATOM      7  O   UNL     1      -6.530  -2.370   0.303  0.00  0.00    -0.274 OA
ATOM      8  C   UNL     1      -4.725  -0.777   0.310  0.00  0.00    +0.171 C 
ATOM      9  N   UNL     1      -3.252  -0.793   0.390  0.00  0.00    -0.233 N 
ATOM     10  C   UNL     1      -2.462   0.172   1.025  0.00  0.00    +0.271 C 
ATOM     11  O   UNL     1      -2.878   1.311   1.369  0.00  0.00    -0.270 OA
ATOM     12  C   UNL     1      -1.119  -0.360   1.294  0.00  0.00    +0.215 C 
ATOM     13  C   UNL     1      -0.864  -0.422   2.804  0.00  0.00    +0.074 C 
ATOM     14  O   UNL     1      -1.110  -1.680   0.768  0.00  0.00    -0.299 OA
ATOM     15  C   UNL     1      -2.405  -1.974   0.244  0.00  0.00    +0.269 C 
ENDROOT
BRANCH  12  16
ATOM     16  N   UNL     1      -0.086   0.453   0.637  0.00  0.00    -0.280 N 
ATOM     17  C   UNL     1       0.154   0.416  -0.780  0.00  0.00    +0.223 C 
ATOM     18  O   UNL     1      -0.774   0.108  -1.573  0.00  0.00    -0.275 OA
ATOM     19  H   UNL     1       0.611   0.959   1.230  0.00  0.00    +0.152 HD
BRANCH  17  20
ATOM     20  C   UNL     1       1.509   0.755  -1.338  0.00  0.00    +0.112 C 
ATOM     21  C   UNL     1       1.711   2.272  -1.381  0.00  0.00    +0.101 C 
ATOM     22  N   UNL     1       3.103   2.569  -1.770  0.00  0.00    -0.297 NA
ATOM     23  C   UNL     1       3.228   4.014  -2.041  0.00  0.00    +0.105 C 
ATOM     24  C   UNL     1       4.038   2.130  -0.698  0.00  0.00    +0.091 C 
ATOM     25  C   UNL     1       5.529   2.325  -1.148  0.00  0.00    +0.061 C 
ATOM     26  C   UNL     1       6.470   1.574  -0.256  0.00  0.00    -0.020 A 
ATOM     27  C   UNL     1       7.847   1.662  -0.080  0.00  0.00    +0.087 A 
ATOM     28  N   UNL     1       8.272   0.662   0.739  0.00  0.00    -0.360 N 
ATOM     29  C   UNL     1       7.173  -0.053   1.050  0.00  0.00    +0.047 A 
ATOM     30  C   UNL     1       7.063  -1.211   1.817  0.00  0.00    +0.026 A 
ATOM     31  C   UNL     1       5.782  -1.794   1.939  0.00  0.00    +0.003 A 
ATOM     32  C   UNL     1       4.659  -1.219   1.288  0.00  0.00    +0.009 A 
ATOM     33  C   UNL     1       4.817  -0.049   0.507  0.00  0.00    -0.011 A 
ATOM     34  C   UNL     1       6.084   0.484   0.447  0.00  0.00    +0.010 A 
ATOM     35  C   UNL     1       3.760   0.668  -0.265  0.00  0.00    -0.025 C 
ATOM     36  C   UNL     1       2.584   0.078  -0.538  0.00  0.00    -0.007 C 
ATOM     37  H   UNL     1       9.252   0.471   1.040  0.00  0.00    +0.165 HD
ENDBRANCH  17  20
ENDBRANCH  12  16
BRANCH  15  38
ATOM     38  O   UNL     1      -2.276  -2.301  -1.118  0.00  0.00    -0.348 OA
ATOM     39  H   UNL     1      -3.180  -2.493  -1.477  0.00  0.00    +0.214 HD
ENDBRANCH  15  38
BRANCH   8  40
ATOM     40  C   UNL     1      -5.181  -0.130  -1.012  0.00  0.00    +0.067 C 
BRANCH  40  41
ATOM     41  C   UNL     1      -4.805   1.326  -1.081  0.00  0.00    -0.045 A 
ATOM     42  C   UNL     1      -5.543   2.280  -0.361  0.00  0.00    +0.004 A 
ATOM     43  C   UNL     1      -5.161   3.626  -0.377  0.00  0.00    +0.000 A 
ATOM     44  C   UNL     1      -4.039   4.026  -1.112  0.00  0.00    +0.000 A 
ATOM     45  C   UNL     1      -3.304   3.085  -1.838  0.00  0.00    +0.000 A 
ATOM     46  C   UNL     1      -3.688   1.740  -1.828  0.00  0.00    +0.004 A 
ENDBRANCH  40  41
ENDBRANCH   8  40
TORSDOF 5
