REMARK  Name = 
REMARK  8 active torsions:
REMARK  status: ('A' for Active; 'I' for Inactive)
REMARK    1  A    between atoms: C_18  and  C_19
REMARK    2  A    between atoms: C_44  and  C_45
REMARK    3  A    between atoms: C_45  and  C_46
REMARK    4  A    between atoms: C_46  and  O_47
REMARK    5  A    between atoms: C_46  and  C_48
REMARK    6  A    between atoms: C_48  and  N_49
REMARK    7  A    between atoms: C_50  and  O_51
REMARK    8  A    between atoms: O_51  and  C_52
REMARK                            x       y       z     vdW  Elec       q    Type
REMARK                         _______ _______ _______ _____ _____    ______ ____
ROOT
ATOM      1  C   UNL     1      -6.547  -3.307  -1.364  0.00  0.00    +0.181 C 
ATOM      2  O   UNL     1      -5.565  -3.830  -0.467  0.00  0.00    -0.365 OA
ATOM      3  C   UNL     1      -4.460  -2.977  -0.195  0.00  0.00    +0.150 C 
ATOM      4  C   UNL     1      -3.359  -3.769   0.513  0.00  0.00    +0.037 C 
ATOM      5  C   UNL     1      -2.177  -2.842   0.817  0.00  0.00    +0.034 C 
ATOM      6  C   UNL     1      -1.731  -2.069  -0.452  0.00  0.00    +0.126 C 
ATOM      7  C   UNL     1      -0.714  -0.977  -0.095  0.00  0.00    +0.106 C 
ATOM      8  C   UNL     1       0.526  -1.510   0.568  0.00  0.00    +0.136 C 
ATOM      9  O   UNL     1       0.574  -1.567   1.787  0.00  0.00    -0.297 OA
ATOM     10  C   UNL     1       1.679  -2.025  -0.249  0.00  0.00    +0.083 C 
ATOM     11  C   UNL     1       2.845  -1.008  -0.328  0.00  0.00    +0.056 C 
ATOM     12  C   UNL     1       3.676  -0.968   0.967  0.00  0.00    +0.128 C 
ATOM     13  C   UNL     1       4.466   0.344   1.222  0.00  0.00    +0.068 C 
ATOM     14  C   UNL     1       3.690   1.668   1.022  0.00  0.00    +0.147 C 
ATOM     15  O   UNL     1       2.412   1.556   1.631  0.00  0.00    -0.369 OA
ATOM     16  C   UNL     1       1.613   2.683   1.317  0.00  0.00    +0.120 C 
ATOM     17  C   UNL     1       2.163   3.893   2.082  0.00  0.00    +0.039 C 
ATOM     18  C   UNL     1       3.621   4.194   1.694  0.00  0.00    +0.016 C 
ATOM     19  C   UNL     1       4.201   5.201   2.708  0.00  0.00    +0.012 C 
ATOM     20  C   UNL     1       4.435   2.906   1.551  0.00  0.00    -0.045 C 
ATOM     21  C   UNL     1       5.788   2.961   1.558  0.00  0.00    +0.010 C 
ATOM     22  C   UNL     1       0.150   2.401   1.729  0.00  0.00    +0.034 C 
ATOM     23  C   UNL     1      -0.854   3.243   0.924  0.00  0.00    +0.038 C 
ATOM     24  C   UNL     1      -2.303   3.062   1.427  0.00  0.00    +0.144 C 
ATOM     25  O   UNL     1      -2.798   1.786   1.060  0.00  0.00    -0.369 OA
ATOM     26  C   UNL     1      -3.921   1.949   0.204  0.00  0.00    +0.123 C 
ATOM     27  C   UNL     1      -4.236   3.439   0.022  0.00  0.00    +0.064 C 
ATOM     28  C   UNL     1      -3.203   4.078   0.831  0.00  0.00    -0.046 C 
ATOM     29  C   UNL     1      -3.120   5.395   1.051  0.00  0.00    +0.010 C 
ATOM     30  C   UNL     1      -5.118   1.159   0.779  0.00  0.00    +0.037 C 
ATOM     31  C   UNL     1      -6.351   1.106  -0.162  0.00  0.00    +0.067 C 
ATOM     32  C   UNL     1      -6.452  -0.197  -0.989  0.00  0.00    +0.174 C 
ATOM     33  C   UNL     1      -7.636  -0.106  -1.929  0.00  0.00    +0.099 C 
ATOM     34  C   UNL     1      -7.925  -1.554  -2.146  0.00  0.00    +0.155 C 
ATOM     35  O   UNL     1      -7.119  -2.009  -3.214  0.00  0.00    -0.365 OA
ATOM     36  C   UNL     1      -6.023  -2.650  -2.616  0.00  0.00    +0.181 C 
ATOM     37  C   UNL     1      -4.894  -1.637  -2.290  0.00  0.00    +0.184 C 
ATOM     38  O   UNL     1      -5.235  -0.360  -1.723  0.00  0.00    -0.340 OA
ATOM     39  C   UNL     1      -3.829  -2.346  -1.455  0.00  0.00    +0.179 C 
ATOM     40  O   UNL     1      -2.829  -1.417  -1.077  0.00  0.00    -0.368 OA
ATOM     41  C   UNL     1      -7.452  -2.218  -0.848  0.00  0.00    +0.182 C 
ATOM     42  O   UNL     1      -6.710  -1.273  -0.118  0.00  0.00    -0.340 OA
ATOM     43  O   UNL     1       4.606  -2.030   0.904  0.00  0.00    -0.370 OA
ATOM     44  C   UNL     1       4.775  -2.379  -0.458  0.00  0.00    +0.150 C 
ATOM     45  C   UNL     1       3.879  -1.481  -1.331  0.00  0.00    +0.153 C 
ENDROOT
BRANCH  45  46
ATOM     46  O   UNL     1       4.607  -0.370  -1.836  0.00  0.00    -0.377 OA
ATOM     47  C   UNL     1       3.988   0.143  -2.995  0.00  0.00    +0.194 C 
ENDBRANCH  45  46
BRANCH  44  48
ATOM     48  C   UNL     1       6.266  -2.329  -0.857  0.00  0.00    +0.066 C 
BRANCH  48  49
ATOM     49  C   UNL     1       7.099  -3.423  -0.158  0.00  0.00    +0.131 C 
BRANCH  49  50
ATOM     50  O   UNL     1       7.147  -3.172   1.223  0.00  0.00    -0.390 OA
ATOM     51  H   UNL     1       7.450  -4.013   1.664  0.00  0.00    +0.210 HD
ENDBRANCH  49  50
BRANCH  49  52
ATOM     52  C   UNL     1       8.531  -3.516  -0.737  0.00  0.00    +0.109 C 
BRANCH  52  53
ATOM     53  N   UNL     1       9.312  -2.291  -0.535  0.00  0.00    -0.328 NA
ATOM     54  H   UNL     1       8.928  -1.535  -1.147  0.00  0.00    +0.118 HD
ATOM     55  H   UNL     1       9.229  -1.977   0.461  0.00  0.00    +0.118 HD
ENDBRANCH  52  53
ENDBRANCH  49  52
ENDBRANCH  48  49
ENDBRANCH  44  48
TORSDOF 6
