REMARK  Name = 
REMARK  12 active torsions:
REMARK  status: ('A' for Active; 'I' for Inactive)
REMARK    1  A    between atoms: C_1  and  O_2
REMARK    2  A    between atoms: O_2  and  C_3
REMARK    3  A    between atoms: C_3  and  C_4
REMARK    4  A    between atoms: C_4  and  O_5
REMARK    5  A    between atoms: O_5  and  C_6
REMARK    6  A    between atoms: C_7  and  O_8
REMARK    7  A    between atoms: O_8  and  C_9
REMARK    8  A    between atoms: C_9  and  C_10
REMARK    9  A    between atoms: C_10  and  O_11
REMARK   10  A    between atoms: O_11  and  C_12
REMARK   11  A    between atoms: N_16  and  C_17
REMARK   12  A    between atoms: C_21  and  C_23
REMARK                            x       y       z     vdW  Elec       q    Type
REMARK                         _______ _______ _______ _____ _____    ______ ____
ROOT
ATOM      1  C   UNL     1      -2.173  -0.983   1.398  0.00  0.00    +0.164 A 
ATOM      2  C   UNL     1      -1.611   0.092   0.694  0.00  0.00    +0.163 A 
ATOM      3  C   UNL     1      -0.217   0.151   0.496  0.00  0.00    +0.062 A 
ATOM      4  C   UNL     1       0.620  -0.856   1.008  0.00  0.00    +0.044 A 
ATOM      5  C   UNL     1       2.022  -0.849   0.838  0.00  0.00    +0.134 A 
ATOM      6  N   UNL     1       2.698   0.250   0.203  0.00  0.00    -0.299 N 
ATOM      7  N   UNL     1       2.757  -1.881   1.338  0.00  0.00    -0.220 NA
ATOM      8  C   UNL     1       2.176  -2.917   1.992  0.00  0.00    +0.223 A 
ATOM      9  N   UNL     1       0.833  -2.941   2.175  0.00  0.00    -0.235 NA
ATOM     10  C   UNL     1       0.045  -1.941   1.702  0.00  0.00    +0.080 A 
ATOM     11  C   UNL     1      -1.337  -1.998   1.900  0.00  0.00    +0.078 A 
ATOM     12  H   UNL     1       2.364   1.220   0.404  0.00  0.00    +0.154 HD
ENDROOT
BRANCH   6  13
ATOM     13  C   UNL     1       3.915   0.102  -0.549  0.00  0.00    +0.034 A 
ATOM     14  C   UNL     1       4.213  -1.093  -1.231  0.00  0.00    +0.023 A 
ATOM     15  C   UNL     1       5.392  -1.206  -1.974  0.00  0.00    +0.003 A 
ATOM     16  C   UNL     1       6.279  -0.130  -2.053  0.00  0.00    +0.017 A 
ATOM     17  C   UNL     1       5.984   1.070  -1.394  0.00  0.00    +0.026 A 
ATOM     18  C   UNL     1       4.802   1.186  -0.650  0.00  0.00    +0.040 A 
BRANCH  17  19
ATOM     19  C   UNL     1       6.893   2.183  -1.483  0.00  0.00    -0.070 C 
ATOM     20  C   UNL     1       7.654   3.115  -1.557  0.00  0.00    +0.009 C 
ENDBRANCH  17  19
ENDBRANCH   6  13
BRANCH   1  21
ATOM     21  O   UNL     1      -3.567  -1.001   1.572  0.00  0.00    -0.486 OA
BRANCH  21  22
ATOM     22  C   UNL     1      -4.329  -2.086   2.102  0.00  0.00    +0.257 C 
BRANCH  22  23
ATOM     23  C   UNL     1      -4.439  -3.225   1.088  0.00  0.00    +0.200 C 
BRANCH  23  25
ATOM     24  C   UNL     1      -4.251  -2.777  -1.186  0.00  0.00    +0.194 C 
ATOM     25  O   UNL     1      -5.115  -2.771  -0.072  0.00  0.00    -0.380 OA
ENDBRANCH  23  25
ENDBRANCH  22  23
ENDBRANCH  21  22
ENDBRANCH   1  21
BRANCH   2  26
ATOM     26  O   UNL     1      -2.476   1.081   0.198  0.00  0.00    -0.486 OA
BRANCH  26  27
ATOM     27  C   UNL     1      -2.062   2.223  -0.547  0.00  0.00    +0.257 C 
BRANCH  27  28
ATOM     28  C   UNL     1      -3.284   3.061  -0.913  0.00  0.00    +0.200 C 
BRANCH  28  29
ATOM     29  O   UNL     1      -2.904   4.150  -1.733  0.00  0.00    -0.380 OA
ATOM     30  C   UNL     1      -2.739   5.316  -0.956  0.00  0.00    +0.194 C 
ENDBRANCH  28  29
ENDBRANCH  27  28
ENDBRANCH  26  27
ENDBRANCH   2  26
TORSDOF 10
