REMARK  Name = 
REMARK  12 active torsions:
REMARK  status: ('A' for Active; 'I' for Inactive)
REMARK    1  A    between atoms: C_2  and  C_3
REMARK    2  A    between atoms: C_4  and  S_5
REMARK    3  A    between atoms: S_5  and  C_6
REMARK    4  A    between atoms: C_9  and  C_11
REMARK    5  A    between atoms: N_13  and  C_14
REMARK    6  A    between atoms: C_18  and  C_20
REMARK    7  A    between atoms: C_20  and  O_21
REMARK    8  A    between atoms: C_23  and  C_31
REMARK    9  A    between atoms: C_27  and  C_28
REMARK   10  A    between atoms: C_28  and  C_29
REMARK   11  A    between atoms: C_28  and  O_30
REMARK   12  A    between atoms: C_31  and  O_32
REMARK                            x       y       z     vdW  Elec       q    Type
REMARK                         _______ _______ _______ _____ _____    ______ ____
ROOT
ATOM      1  C   UNL     1      -0.065   0.357   0.120  0.00  0.00    +0.067 C 
ATOM      2  C   UNL     1      -0.099  -0.300   1.501  0.00  0.00    +0.096 C 
ATOM      3  N   UNL     1      -1.421  -0.064   2.094  0.00  0.00    -0.305 NA
ATOM      4  C   UNL     1      -2.112   0.872   1.198  0.00  0.00    +0.142 C 
ATOM      5  C   UNL     1      -1.514   0.664  -0.184  0.00  0.00    +0.044 C 
ATOM      6  H   UNL     1      -1.924  -0.984   2.090  0.00  0.00    +0.123 HD
ENDROOT
BRANCH   4   7
ATOM      7  C   UNL     1      -3.616   0.707   1.210  0.00  0.00    +0.234 C 
ATOM      8  O   UNL     1      -4.171   0.044   2.129  0.00  0.00    -0.274 OA
ATOM      9  N   UNL     1      -4.418   1.407   0.244  0.00  0.00    -0.284 N 
ATOM     10  H   UNL     1      -3.976   2.202  -0.273  0.00  0.00    +0.155 HD
BRANCH   9  11
ATOM     11  C   UNL     1      -5.823   1.172   0.049  0.00  0.00    +0.034 A 
ATOM     12  C   UNL     1      -6.654   2.241  -0.313  0.00  0.00    +0.023 A 
ATOM     13  C   UNL     1      -8.020   2.037  -0.517  0.00  0.00    +0.003 A 
ATOM     14  C   UNL     1      -8.568   0.760  -0.374  0.00  0.00    +0.015 A 
ATOM     15  C   UNL     1      -7.748  -0.332  -0.037  0.00  0.00    +0.061 A 
ATOM     16  C   UNL     1      -6.372  -0.118   0.164  0.00  0.00    +0.038 A 
BRANCH  15  17
ATOM     17  C   UNL     1      -8.321  -1.690   0.099  0.00  0.00    +0.337 C 
ATOM     18  O   UNL     1      -9.552  -1.886  -0.094  0.00  0.00    -0.245 OA
BRANCH  17  19
ATOM     19  O   UNL     1      -7.507  -2.765   0.448  0.00  0.00    -0.477 OA
ATOM     20  H   UNL     1      -7.889  -3.698   0.545  0.00  0.00    +0.295 HD
ENDBRANCH  17  19
ENDBRANCH  15  17
ENDBRANCH   9  11
ENDBRANCH   4   7
BRANCH   1  21
ATOM     21  S   UNL     1       0.674  -0.708  -1.176  0.00  0.00    -0.122 S 
BRANCH  21  25
ATOM     22  C   UNL     1       4.536   0.302   0.068  0.00  0.00    +0.104 C 
ATOM     23  C   UNL     1       3.278   0.594  -0.817  0.00  0.00    +0.046 C 
ATOM     24  C   UNL     1       3.550   0.735  -2.318  0.00  0.00    +0.015 C 
ATOM     25  C   UNL     1       2.353  -0.590  -0.535  0.00  0.00    +0.019 C 
ATOM     26  C   UNL     1       2.963  -1.506   0.217  0.00  0.00    +0.131 C 
ATOM     27  N   UNL     1       4.251  -1.032   0.502  0.00  0.00    -0.260 N 
ATOM     28  C   UNL     1       5.607  -1.443   0.076  0.00  0.00    +0.228 C 
ATOM     29  O   UNL     1       6.258  -2.520   0.099  0.00  0.00    -0.275 OA
ATOM     30  C   UNL     1       5.832  -0.068  -0.486  0.00  0.00    +0.125 C 
BRANCH  30  31
ATOM     31  C   UNL     1       7.024   0.662   0.168  0.00  0.00    +0.125 C 
ATOM     32  C   UNL     1       8.354   0.114  -0.359  0.00  0.00    +0.038 C 
BRANCH  31  33
ATOM     33  O   UNL     1       6.936   2.032  -0.129  0.00  0.00    -0.391 OA
ATOM     34  H   UNL     1       7.520   2.506   0.520  0.00  0.00    +0.210 HD
ENDBRANCH  31  33
ENDBRANCH  30  31
BRANCH  26  35
ATOM     35  C   UNL     1       2.488  -2.847   0.596  0.00  0.00    +0.352 C 
ATOM     36  O   UNL     1       3.185  -3.553   1.373  0.00  0.00    -0.244 OA
BRANCH  35  37
ATOM     37  O   UNL     1       1.294  -3.355   0.094  0.00  0.00    -0.476 OA
ATOM     38  H   UNL     1       0.970  -4.278   0.356  0.00  0.00    +0.295 HD
ENDBRANCH  35  37
ENDBRANCH  26  35
ENDBRANCH  21  25
ENDBRANCH   1  21
TORSDOF 10
