REMARK  Name = 
REMARK  25 active torsions:
REMARK  status: ('A' for Active; 'I' for Inactive)
REMARK    1  A    between atoms: C_1  and  C_2
REMARK    2  A    between atoms: C_2  and  C_3
REMARK    3  A    between atoms: C_7  and  C_8
REMARK    4  A    between atoms: C_9  and  O_10
REMARK    5  A    between atoms: O_10  and  C_11
REMARK    6  A    between atoms: C_13  and  C_14
REMARK    7  A    between atoms: C_13  and  O_15
REMARK    8  A    between atoms: O_15  and  C_16
REMARK    9  A    between atoms: C_17  and  O_18
REMARK   10  A    between atoms: C_19  and  C_20
REMARK   11  A    between atoms: C_22  and  C_23
REMARK   12  A    between atoms: C_24  and  O_25
REMARK   13  A    between atoms: O_25  and  C_26
REMARK   14  A    between atoms: C_28  and  C_29
REMARK   15  A    between atoms: C_31  and  N_34
REMARK   16  A    between atoms: C_32  and  O_33
REMARK   17  A    between atoms: N_34  and  C_35
REMARK   18  A    between atoms: N_34  and  C_36
REMARK   19  A    between atoms: C_37  and  C_38
REMARK   20  A    between atoms: C_37  and  O_39
REMARK   21  A    between atoms: C_41  and  C_42
REMARK   22  A    between atoms: C_45  and  C_46
REMARK   23  A    between atoms: C_47  and  O_48
REMARK   24  A    between atoms: C_49  and  C_50
REMARK   25  A    between atoms: C_49  and  O_51
REMARK                            x       y       z     vdW  Elec       q    Type
REMARK                         _______ _______ _______ _____ _____    ______ ____
ROOT
ATOM      1  C   UNL     1      -4.089  -3.061   0.720  0.00  0.00    +0.210 C 
ATOM      2  O   UNL     1      -2.901  -2.369   1.114  0.00  0.00    -0.458 OA
ATOM      3  C   UNL     1      -2.773  -0.973   1.140  0.00  0.00    +0.313 C 
ATOM      4  O   UNL     1      -3.650  -0.240   0.611  0.00  0.00    -0.250 OA
ATOM      5  C   UNL     1      -1.610  -0.372   1.872  0.00  0.00    +0.124 C 
ATOM      6  C   UNL     1      -2.080   0.261   3.194  0.00  0.00    +0.022 C 
ATOM      7  C   UNL     1      -0.778   0.607   0.978  0.00  0.00    +0.140 C 
ATOM      8  C   UNL     1       0.735   0.629   1.438  0.00  0.00    +0.047 C 
ATOM      9  C   UNL     1       1.154   2.044   1.918  0.00  0.00    +0.013 C 
ATOM     10  C   UNL     1       1.736   0.070   0.343  0.00  0.00    +0.158 C 
ATOM     11  C   UNL     1       1.805  -1.504   0.170  0.00  0.00    +0.090 C 
ATOM     12  C   UNL     1       2.006  -2.212   1.542  0.00  0.00    +0.044 C 
ATOM     13  C   UNL     1       0.543  -2.067  -0.564  0.00  0.00    +0.048 C 
ATOM     14  C   UNL     1       0.502  -3.563  -1.039  0.00  0.00    +0.055 C 
ATOM     15  C   UNL     1       1.841  -4.150  -1.516  0.00  0.00    +0.015 C 
ATOM     16  C   UNL     1      -0.168  -4.501  -0.037  0.00  0.00    +0.142 C 
ATOM     17  O   UNL     1       0.221  -4.522   1.120  0.00  0.00    -0.297 OA
ATOM     18  C   UNL     1      -1.305  -5.433  -0.441  0.00  0.00    +0.084 C 
ATOM     19  C   UNL     1      -0.862  -6.324  -1.623  0.00  0.00    +0.018 C 
ATOM     20  C   UNL     1      -2.648  -4.648  -0.715  0.00  0.00    +0.159 C 
ATOM     21  C   UNL     1      -3.718  -4.567   0.479  0.00  0.00    +0.126 C 
ATOM     22  C   UNL     1      -3.231  -5.189   1.827  0.00  0.00    +0.048 C 
ENDROOT
BRANCH   1  24
ATOM     23  C   UNL     1      -6.602  -3.250   1.372  0.00  0.00    +0.007 C 
ATOM     24  C   UNL     1      -5.203  -2.779   1.770  0.00  0.00    +0.044 C 
ENDBRANCH   1  24
BRANCH  11  25
ATOM     25  O   UNL     1       2.913  -1.741  -0.672  0.00  0.00    -0.386 OA
ATOM     26  H   UNL     1       3.711  -2.002  -0.125  0.00  0.00    +0.210 HD
ENDBRANCH  11  25
BRANCH  20  27
ATOM     27  O   UNL     1      -3.282  -5.189  -1.855  0.00  0.00    -0.388 OA
ATOM     28  H   UNL     1      -3.711  -4.441  -2.356  0.00  0.00    +0.210 HD
ENDBRANCH  20  27
BRANCH  21  29
ATOM     29  O   UNL     1      -4.890  -5.247   0.084  0.00  0.00    -0.383 OA
ATOM     30  H   UNL     1      -4.683  -6.223   0.029  0.00  0.00    +0.210 HD
ENDBRANCH  21  29
BRANCH   7  31
ATOM     31  O   UNL     1      -1.357   1.905   1.068  0.00  0.00    -0.347 OA
BRANCH  31  32
ATOM     32  C   UNL     1      -1.869   2.438  -0.144  0.00  0.00    +0.254 C 
ATOM     33  C   UNL     1      -3.403   2.645   0.037  0.00  0.00    +0.098 C 
ATOM     34  C   UNL     1      -3.838   4.107  -0.172  0.00  0.00    +0.099 C 
ATOM     35  C   UNL     1      -5.385   4.138  -0.198  0.00  0.00    +0.044 C 
ATOM     36  C   UNL     1      -3.233   4.521  -1.541  0.00  0.00    +0.175 C 
ATOM     37  C   UNL     1      -1.683   4.393  -1.513  0.00  0.00    +0.149 C 
ATOM     38  C   UNL     1      -1.117   3.842  -2.831  0.00  0.00    +0.041 C 
ATOM     39  O   UNL     1      -1.188   3.666  -0.387  0.00  0.00    -0.346 OA
BRANCH  34  40
ATOM     40  O   UNL     1      -3.327   4.832   0.952  0.00  0.00    -0.374 OA
ATOM     41  C   UNL     1      -3.484   6.234   0.880  0.00  0.00    +0.194 C 
ENDBRANCH  34  40
BRANCH  36  42
ATOM     42  O   UNL     1      -3.626   5.821  -1.899  0.00  0.00    -0.386 OA
ATOM     43  H   UNL     1      -3.397   5.938  -2.862  0.00  0.00    +0.210 HD
ENDBRANCH  36  42
ENDBRANCH  31  32
ENDBRANCH   7  31
BRANCH  10  44
ATOM     44  O   UNL     1       3.061   0.486   0.675  0.00  0.00    -0.342 OA
BRANCH  44  45
ATOM     45  C   UNL     1       3.631   1.381  -0.272  0.00  0.00    +0.281 C 
ATOM     46  O   UNL     1       3.647   0.781  -1.572  0.00  0.00    -0.346 OA
ATOM     47  C   UNL     1       4.881   0.772  -2.272  0.00  0.00    +0.120 C 
ATOM     48  C   UNL     1       5.691  -0.496  -1.966  0.00  0.00    +0.038 C 
ATOM     49  C   UNL     1       5.685   2.086  -2.174  0.00  0.00    +0.053 C 
ATOM     50  C   UNL     1       5.737   2.712  -0.764  0.00  0.00    +0.092 C 
ATOM     51  C   UNL     1       5.002   1.844   0.284  0.00  0.00    +0.187 C 
BRANCH  50  52
ATOM     52  N   UNL     1       7.141   3.060  -0.426  0.00  0.00    -0.303 NA
ATOM     53  C   UNL     1       7.961   1.944   0.084  0.00  0.00    +0.105 C 
ATOM     54  C   UNL     1       7.264   4.247   0.437  0.00  0.00    +0.105 C 
ENDBRANCH  50  52
BRANCH  51  55
ATOM     55  O   UNL     1       4.787   2.607   1.444  0.00  0.00    -0.385 OA
ATOM     56  H   UNL     1       4.697   1.971   2.196  0.00  0.00    +0.210 HD
ENDBRANCH  51  55
ENDBRANCH  44  45
ENDBRANCH  10  44
TORSDOF 12
