REMARK  Name = 
REMARK  11 active torsions:
REMARK  status: ('A' for Active; 'I' for Inactive)
REMARK    1  A    between atoms: N_2  and  O_4
REMARK    2  A    between atoms: O_4  and  C_5
REMARK    3  A    between atoms: C_5  and  C_6
REMARK    4  A    between atoms: C_6  and  O_7
REMARK    5  A    between atoms: C_6  and  C_11
REMARK    6  A    between atoms: O_7  and  N_8
REMARK    7  A    between atoms: C_11  and  C_12
REMARK    8  A    between atoms: C_11  and  O_17
REMARK    9  A    between atoms: C_12  and  O_13
REMARK   10  A    between atoms: O_13  and  N_14
REMARK   11  A    between atoms: O_17  and  N_18
REMARK                            x       y       z     vdW  Elec       q    Type
REMARK                         _______ _______ _______ _____ _____    ______ ____
ROOT
ATOM      1  C   UNL     1      -0.358   0.623   0.149  0.00  0.00    +0.295 C 
ENDROOT
BRANCH   1   2
ATOM      2  C   UNL     1      -1.879   0.401   0.102  0.00  0.00    +0.318 C 
BRANCH   2   3
ATOM      3  O   UNL     1      -2.281  -0.024  -1.196  0.00  0.00    -0.348 OA
BRANCH   3   5
ATOM      4  O   UNL     1      -3.932  -0.682  -2.772  0.00  0.00    -0.090 OA
ATOM      5  N   UNL     1      -3.605  -0.244  -1.514  0.00  0.00    +0.217 N 
ATOM      6  O   UNL     1      -4.510  -0.041  -0.679  0.00  0.00    -0.090 OA
ENDBRANCH   3   5
ENDBRANCH   2   3
ENDBRANCH   1   2
BRANCH   1   7
ATOM      7  O   UNL     1      -0.033   1.333   1.346  0.00  0.00    -0.341 OA
BRANCH   7   8
ATOM      8  N   UNL     1      -0.238   2.692   1.516  0.00  0.00    +0.218 N 
ATOM      9  O   UNL     1      -0.645   3.511   0.486  0.00  0.00    -0.090 OA
ATOM     10  O   UNL     1      -0.586   3.406   0.556  0.00  0.00    -0.090 OA
ENDBRANCH   7   8
ENDBRANCH   1   7
BRANCH   1  11
ATOM     11  C   UNL     1       0.415  -0.717   0.136  0.00  0.00    +0.295 C 
BRANCH  11  12
ATOM     12  C   UNL     1       1.933  -0.485   0.020  0.00  0.00    +0.318 C 
BRANCH  12  13
ATOM     13  O   UNL     1       2.432   0.144   1.198  0.00  0.00    -0.348 OA
BRANCH  13  14
ATOM     14  N   UNL     1       3.752   0.529   1.314  0.00  0.00    +0.217 N 
ATOM     15  O   UNL     1       4.638   0.337   0.280  0.00  0.00    -0.090 OA
ATOM     16  O   UNL     1       4.143   1.069   2.367  0.00  0.00    -0.090 OA
ENDBRANCH  13  14
ENDBRANCH  12  13
ENDBRANCH  11  12
BRANCH  11  17
ATOM     17  O   UNL     1      -0.019  -1.517  -0.965  0.00  0.00    -0.341 OA
BRANCH  17  18
ATOM     18  N   UNL     1       0.168  -2.886  -1.005  0.00  0.00    +0.218 N 
ATOM     19  O   UNL     1       0.695  -3.559   0.072  0.00  0.00    -0.090 OA
ATOM     20  O   UNL     1      -0.259  -3.534  -1.982  0.00  0.00    -0.090 OA
ENDBRANCH  17  18
ENDBRANCH  11  17
ENDBRANCH   1  11
TORSDOF 11
