REMARK  Name = 
REMARK  8 active torsions:
REMARK  status: ('A' for Active; 'I' for Inactive)
REMARK    1  A    between atoms: C_1  and  N_2
REMARK    2  A    between atoms: N_2  and  C_3
REMARK    3  A    between atoms: N_2  and  C_4
REMARK    4  A    between atoms: C_4  and  C_5
REMARK    5  A    between atoms: C_5  and  C_6
REMARK    6  A    between atoms: C_6  and  C_7
REMARK    7  A    between atoms: C_7  and  C_18
REMARK    8  A    between atoms: C_14  and  C_16
REMARK                            x       y       z     vdW  Elec       q    Type
REMARK                         _______ _______ _______ _____ _____    ______ ____
ROOT
ATOM      1  C   UNL     1      -0.556  -0.361   0.575  0.00  0.00    +0.120 C 
ATOM      2  O   UNL     1       0.554   0.274   1.212  0.00  0.00    -0.360 OA
ATOM      3  C   UNL     1       0.527   1.661   0.899  0.00  0.00    +0.197 C 
ATOM      4  C   UNL     1      -0.629   1.883   0.019  0.00  0.00    -0.014 A 
ATOM      5  C   UNL     1      -1.267   0.709  -0.182  0.00  0.00    -0.006 A 
ATOM      6  C   UNL     1      -2.397   0.628  -1.004  0.00  0.00    +0.008 A 
ATOM      7  C   UNL     1      -2.865   1.802  -1.618  0.00  0.00    +0.019 A 
ATOM      8  C   UNL     1      -2.197   3.026  -1.404  0.00  0.00    +0.052 A 
ATOM      9  C   UNL     1      -1.061   3.070  -0.575  0.00  0.00    +0.025 A 
ENDROOT
BRANCH   1  10
ATOM     10  C   UNL     1      -1.496  -0.938   1.641  0.00  0.00    -0.011 A 
ATOM     11  C   UNL     1      -1.456  -0.458   2.969  0.00  0.00    +0.009 A 
ATOM     12  C   UNL     1      -2.338  -0.949   3.935  0.00  0.00    +0.039 A 
ATOM     13  C   UNL     1      -3.287  -1.913   3.594  0.00  0.00    +0.123 A 
ATOM     14  F   UNL     1      -4.144  -2.386   4.532  0.00  0.00    -0.205 F 
ATOM     15  C   UNL     1      -3.362  -2.381   2.281  0.00  0.00    +0.039 A 
ATOM     16  C   UNL     1      -2.483  -1.894   1.310  0.00  0.00    +0.009 A 
ENDBRANCH   1  10
BRANCH   8  17
ATOM     17  C   UNL     1      -2.675   4.228  -2.035  0.00  0.00    +0.099 C 
ATOM     18  N   UNL     1      -3.059   5.194  -2.543  0.00  0.00    -0.191 NA
ENDBRANCH   8  17
BRANCH   1  19
ATOM     19  C   UNL     1      -0.018  -1.467  -0.381  0.00  0.00    +0.046 C 
BRANCH  19  20
ATOM     20  C   UNL     1       1.097  -0.998  -1.344  0.00  0.00    +0.019 C 
BRANCH  20  21
ATOM     21  C   UNL     1       2.506  -1.163  -0.752  0.00  0.00    +0.084 C 
BRANCH  21  23
ATOM     22  C   UNL     1       3.750   0.724  -1.656  0.00  0.00    +0.104 C 
ATOM     23  N   UNL     1       3.531  -0.732  -1.729  0.00  0.00    -0.308 NA
ATOM     24  C   UNL     1       4.803  -1.429  -1.477  0.00  0.00    +0.104 C 
ENDBRANCH  21  23
ENDBRANCH  20  21
ENDBRANCH  19  20
ENDBRANCH   1  19
TORSDOF 6
