REMARK  Name = 
REMARK  14 active torsions:
REMARK  status: ('A' for Active; 'I' for Inactive)
REMARK    1  A    between atoms: C_1  and  O_2
REMARK    2  A    between atoms: O_2  and  C_3
REMARK    3  A    between atoms: C_3  and  C_5
REMARK    4  A    between atoms: C_5  and  C_6
REMARK    5  A    between atoms: C_6  and  C_7
REMARK    6  A    between atoms: C_10  and  O_11
REMARK    7  A    between atoms: O_11  and  C_12
REMARK    8  A    between atoms: C_12  and  C_13
REMARK    9  A    between atoms: C_13  and  O_14
REMARK   10  A    between atoms: C_13  and  C_15
REMARK   11  A    between atoms: C_15  and  N_16
REMARK   12  A    between atoms: N_16  and  C_17
REMARK   13  A    between atoms: C_17  and  C_18
REMARK   14  A    between atoms: C_17  and  C_19
REMARK                            x       y       z     vdW  Elec       q    Type
REMARK                         _______ _______ _______ _____ _____    ______ ____
ROOT
ATOM      1  C   UNL     1       3.409  -0.182   1.056  0.00  0.00    -0.047 A 
ATOM      2  C   UNL     1       2.917  -1.407   1.532  0.00  0.00    +0.007 A 
ATOM      3  C   UNL     1       1.544  -1.669   1.518  0.00  0.00    +0.046 A 
ATOM      4  C   UNL     1       0.643  -0.720   1.020  0.00  0.00    +0.121 A 
ATOM      5  C   UNL     1       1.137   0.504   0.529  0.00  0.00    +0.046 A 
ATOM      6  C   UNL     1       2.510   0.767   0.544  0.00  0.00    +0.007 A 
ENDROOT
BRANCH   1   7
ATOM      7  C   UNL     1       4.889   0.087   1.039  0.00  0.00    +0.046 C 
BRANCH   7   8
ATOM      8  C   UNL     1       5.508  -0.391  -0.277  0.00  0.00    +0.125 C 
BRANCH   8   9
ATOM      9  C   UNL     1       6.977  -0.112  -0.296  0.00  0.00    +0.307 C 
ATOM     10  O   UNL     1       7.785  -0.982   0.130  0.00  0.00    -0.251 OA
BRANCH   9  12
ATOM     11  C   UNL     1       8.815   1.474  -0.766  0.00  0.00    +0.280 C 
ATOM     12  O   UNL     1       7.435   1.130  -0.744  0.00  0.00    -0.468 OA
ENDBRANCH   9  12
ENDBRANCH   8   9
ENDBRANCH   7   8
ENDBRANCH   1   7
BRANCH   4  13
ATOM     13  O   UNL     1      -0.725  -1.030   1.028  0.00  0.00    -0.489 OA
BRANCH  13  14
ATOM     14  C   UNL     1      -1.752  -0.162   0.555  0.00  0.00    +0.261 C 
BRANCH  14  15
ATOM     15  C   UNL     1      -3.114  -0.838   0.726  0.00  0.00    +0.166 C 
BRANCH  15  16
ATOM     16  O   UNL     1      -3.321  -1.109   2.089  0.00  0.00    -0.387 OA
ATOM     17  H   UNL     1      -3.892  -1.919   2.142  0.00  0.00    +0.210 HD
ENDBRANCH  15  16
BRANCH  15  18
ATOM     18  C   UNL     1      -4.236   0.067   0.192  0.00  0.00    +0.115 C 
BRANCH  18  19
ATOM     19  N   UNL     1      -5.527  -0.639   0.252  0.00  0.00    -0.311 NA
ATOM     20  H   UNL     1      -5.846  -0.650   1.250  0.00  0.00    +0.122 HD
BRANCH  19  21
ATOM     21  C   UNL     1      -6.599  -0.026  -0.560  0.00  0.00    +0.048 C 
ATOM     22  C   UNL     1      -6.793   1.472  -0.274  0.00  0.00    +0.023 C 
ATOM     23  C   UNL     1      -6.393  -0.294  -2.056  0.00  0.00    +0.023 C 
ENDBRANCH  19  21
ENDBRANCH  18  19
ENDBRANCH  15  18
ENDBRANCH  14  15
ENDBRANCH  13  14
ENDBRANCH   4  13
TORSDOF 11
