REMARK  Name = 
REMARK  9 active torsions:
REMARK  status: ('A' for Active; 'I' for Inactive)
REMARK    1  A    between atoms: C_1  and  O_2
REMARK    2  A    between atoms: O_2  and  C_3
REMARK    3  A    between atoms: C_8  and  S_10
REMARK    4  A    between atoms: S_10  and  C_12
REMARK    5  A    between atoms: C_12  and  C_13
REMARK    6  A    between atoms: C_16  and  C_17
REMARK    7  A    between atoms: C_18  and  O_19
REMARK    8  A    between atoms: O_19  and  C_20
REMARK    9  A    between atoms: C_21  and  C_22
REMARK                            x       y       z     vdW  Elec       q    Type
REMARK                         _______ _______ _______ _____ _____    ______ ____
ROOT
ATOM      1  S   UNL     1       0.067   0.584   1.356  0.00  0.00    +0.095 S 
ATOM      2  O   UNL     1      -0.143   0.363   2.848  0.00  0.00    -0.249 OA
ENDROOT
BRANCH   1   8
ATOM      3  C   UNL     1       6.114  -0.185   0.123  0.00  0.00    +0.122 A 
ATOM      4  C   UNL     1       5.025   0.712  -0.027  0.00  0.00    +0.075 A 
ATOM      5  C   UNL     1       3.791   0.330   0.493  0.00  0.00    +0.093 A 
ATOM      6  C   UNL     1       3.615  -0.862   1.128  0.00  0.00    +0.067 A 
ATOM      7  N   UNL     1       2.342  -0.971   1.523  0.00  0.00    -0.331 N 
ATOM      8  C   UNL     1       1.777   0.187   1.103  0.00  0.00    +0.198 A 
ATOM      9  N   UNL     1       2.637   1.020   0.462  0.00  0.00    -0.220 NA
ATOM     10  C   UNL     1       4.654  -1.772   1.298  0.00  0.00    +0.031 A 
ATOM     11  C   UNL     1       5.916  -1.421   0.785  0.00  0.00    +0.048 A 
ATOM     12  H   UNL     1       1.890  -1.762   2.033  0.00  0.00    +0.168 HD
BRANCH   3  14
ATOM     13  C   UNL     1       7.737   1.309  -1.050  0.00  0.00    +0.277 C 
ATOM     14  O   UNL     1       7.395   0.108  -0.366  0.00  0.00    -0.495 OA
ENDBRANCH   3  14
ENDBRANCH   1   8
BRANCH   1  15
ATOM     15  C   UNL     1      -0.830  -0.765   0.559  0.00  0.00    +0.167 C 
BRANCH  15  16
ATOM     16  C   UNL     1      -2.311  -0.520   0.647  0.00  0.00    +0.060 A 
ATOM     17  N   UNL     1      -2.984  -1.064   1.696  0.00  0.00    -0.258 NA
ATOM     18  C   UNL     1      -4.316  -0.890   1.877  0.00  0.00    +0.118 A 
ATOM     19  C   UNL     1      -5.058  -0.129   0.969  0.00  0.00    +0.010 A 
ATOM     20  C   UNL     1      -6.542   0.025   1.149  0.00  0.00    +0.049 C 
ATOM     21  C   UNL     1      -4.404   0.434  -0.141  0.00  0.00    +0.129 A 
ATOM     22  C   UNL     1      -3.009   0.280  -0.292  0.00  0.00    +0.014 A 
ATOM     23  C   UNL     1      -2.295   0.915  -1.461  0.00  0.00    +0.049 C 
BRANCH  21  24
ATOM     24  O   UNL     1      -5.146   1.153  -1.083  0.00  0.00    -0.494 OA
ATOM     25  C   UNL     1      -5.614   0.543  -2.279  0.00  0.00    +0.277 C 
ENDBRANCH  21  24
ENDBRANCH  15  16
ENDBRANCH   1  15
TORSDOF 5
