REMARK  Name = 
REMARK  1 active torsions:
REMARK  status: ('A' for Active; 'I' for Inactive)
REMARK    1  A    between atoms: C_15  and  C_16
REMARK                            x       y       z     vdW  Elec       q    Type
REMARK                         _______ _______ _______ _____ _____    ______ ____
ROOT
ATOM      1 CL   UNL     1      -0.689   4.377  -1.675  0.00  0.00    -0.084 Cl
ATOM      2  C   UNL     1      -1.159   2.814  -1.031  0.00  0.00    +0.042 A 
ATOM      3  C   UNL     1      -0.277   1.735  -1.103  0.00  0.00    +0.032 A 
ATOM      4  C   UNL     1      -0.629   0.474  -0.583  0.00  0.00    +0.026 A 
ATOM      5  C   UNL     1      -1.921   0.306  -0.011  0.00  0.00    +0.058 A 
ATOM      6  C   UNL     1      -2.791   1.409   0.063  0.00  0.00    +0.028 A 
ATOM      7  C   UNL     1      -2.411   2.652  -0.440  0.00  0.00    +0.022 A 
ATOM      8  N   UNL     1      -2.377  -0.978   0.449  0.00  0.00    -0.283 N 
ATOM      9  C   UNL     1      -3.251  -1.265   1.432  0.00  0.00    +0.230 A 
ATOM     10  N   UNL     1      -3.490  -2.590   1.494  0.00  0.00    -0.137 NA
ATOM     11  N   UNL     1      -2.774  -3.164   0.536  0.00  0.00    -0.132 NA
ATOM     12  C   UNL     1      -2.110  -2.175  -0.091  0.00  0.00    +0.159 A 
ATOM     13  C   UNL     1      -1.197  -2.366  -1.251  0.00  0.00    +0.218 C 
ATOM     14  N   UNL     1       0.120  -1.848  -0.905  0.00  0.00    -0.275 NA
ATOM     15  C   UNL     1       0.405  -0.613  -0.593  0.00  0.00    +0.075 C 
ENDROOT
BRANCH  15  16
ATOM     16  C   UNL     1       1.816  -0.296  -0.250  0.00  0.00    +0.001 A 
ATOM     17  C   UNL     1       2.120   0.684   0.714  0.00  0.00    +0.010 A 
ATOM     18  C   UNL     1       3.449   0.970   1.040  0.00  0.00    +0.001 A 
ATOM     19  C   UNL     1       4.488   0.277   0.415  0.00  0.00    +0.000 A 
ATOM     20  C   UNL     1       4.200  -0.706  -0.535  0.00  0.00    +0.001 A 
ATOM     21  C   UNL     1       2.872  -0.996  -0.864  0.00  0.00    +0.010 A 
ENDBRANCH  15  16
TORSDOF 1
