REMARK  Name = 
REMARK  4 active torsions:
REMARK  status: ('A' for Active; 'I' for Inactive)
REMARK    1  A    between atoms: C_3  and  O_4
REMARK    2  A    between atoms: C_5  and  O_6
REMARK    3  A    between atoms: C_7  and  C_8
REMARK    4  A    between atoms: C_18  and  O_19
REMARK                            x       y       z     vdW  Elec       q    Type
REMARK                         _______ _______ _______ _____ _____    ______ ____
ROOT
ATOM      1  C   UNL     1      -1.448  -0.708   0.211  0.00  0.00    +0.004 C 
ATOM      2  C   UNL     1      -2.467  -1.494  -0.604  0.00  0.00    +0.038 C 
ATOM      3  C   UNL     1      -3.830  -1.020  -0.046  0.00  0.00    +0.144 C 
ATOM      4  C   UNL     1      -3.535   0.173   0.900  0.00  0.00    +0.149 C 
ATOM      5  C   UNL     1      -2.124   0.644   0.483  0.00  0.00    -0.000 C 
ATOM      6  C   UNL     1      -2.230   1.570  -0.772  0.00  0.00    +0.014 C 
ATOM      7  C   UNL     1      -1.327   1.357   1.597  0.00  0.00    +0.010 C 
ATOM      8  C   UNL     1       0.167   1.519   1.213  0.00  0.00    +0.009 C 
ATOM      9  C   UNL     1       0.836   0.184   0.760  0.00  0.00    +0.023 C 
ATOM     10  C   UNL     1       2.285   0.335   0.292  0.00  0.00    -0.041 A 
ATOM     11  C   UNL     1       2.840  -0.597  -0.630  0.00  0.00    -0.040 A 
ATOM     12  C   UNL     1       2.003  -1.657  -1.313  0.00  0.00    +0.036 C 
ATOM     13  C   UNL     1       0.644  -1.888  -0.649  0.00  0.00    +0.009 C 
ATOM     14  C   UNL     1      -0.014  -0.541  -0.326  0.00  0.00    +0.001 C 
ATOM     15  C   UNL     1       4.192  -0.494  -0.997  0.00  0.00    +0.049 A 
ATOM     16  C   UNL     1       5.014   0.484  -0.430  0.00  0.00    +0.117 A 
ATOM     17  C   UNL     1       4.488   1.368   0.510  0.00  0.00    +0.046 A 
ATOM     18  C   UNL     1       3.145   1.289   0.879  0.00  0.00    +0.008 A 
ENDROOT
BRANCH   3  19
ATOM     19  O   UNL     1      -4.508  -2.054   0.625  0.00  0.00    -0.389 OA
ATOM     20  H   UNL     1      -3.906  -2.397   1.337  0.00  0.00    +0.210 HD
ENDBRANCH   3  19
BRANCH   4  21
ATOM     21  O   UNL     1      -4.512   1.173   0.761  0.00  0.00    -0.389 OA
ATOM     22  H   UNL     1      -4.360   1.818   1.499  0.00  0.00    +0.210 HD
ENDBRANCH   4  21
BRANCH  16  23
ATOM     23  O   UNL     1       6.356   0.581  -0.791  0.00  0.00    -0.507 OA
ATOM     24  H   UNL     1       6.769  -0.047  -1.470  0.00  0.00    +0.292 HD
ENDBRANCH  16  23
TORSDOF 3
