REMARK  Name = 
REMARK  12 active torsions:
REMARK  status: ('A' for Active; 'I' for Inactive)
REMARK    1  A    between atoms: C_4  and  O_5
REMARK    2  A    between atoms: C_4  and  C_6
REMARK    3  A    between atoms: C_6  and  C_7
REMARK    4  A    between atoms: C_9  and  C_10
REMARK    5  A    between atoms: C_27  and  O_28
REMARK    6  A    between atoms: O_28  and  C_29
REMARK    7  A    between atoms: C_29  and  C_31
REMARK    8  A    between atoms: C_31  and  C_32
REMARK    9  A    between atoms: C_32  and  C_33
REMARK   10  A    between atoms: C_33  and  C_34
REMARK   11  A    between atoms: C_35  and  C_36
REMARK   12  A    between atoms: C_46  and  O_47
REMARK                            x       y       z     vdW  Elec       q    Type
REMARK                         _______ _______ _______ _____ _____    ______ ____
ROOT
ATOM      1  C   UNL     1      -1.046   0.295   0.800  0.00  0.00    +0.005 C 
ATOM      2  C   UNL     1      -1.845   0.136   2.088  0.00  0.00    +0.007 C 
ATOM      3  C   UNL     1      -3.305  -0.031   1.642  0.00  0.00    +0.036 C 
ATOM      4  C   UNL     1      -3.316  -0.146   0.085  0.00  0.00    +0.084 C 
ATOM      5  C   UNL     1      -1.823  -0.506  -0.249  0.00  0.00    +0.001 C 
ATOM      6  C   UNL     1      -1.617  -2.052  -0.098  0.00  0.00    +0.014 C 
ATOM      7  C   UNL     1      -1.292  -0.057  -1.629  0.00  0.00    +0.014 C 
ATOM      8  C   UNL     1       0.224  -0.315  -1.790  0.00  0.00    +0.032 C 
ATOM      9  C   UNL     1       1.088  -0.125  -0.532  0.00  0.00    -0.063 C 
ATOM     10  C   UNL     1       2.449  -0.114  -0.634  0.00  0.00    -0.044 C 
ATOM     11  C   UNL     1       3.158  -0.212  -1.981  0.00  0.00    +0.043 C 
ATOM     12  C   UNL     1       4.533  -0.876  -1.863  0.00  0.00    +0.083 C 
ATOM     13  C   UNL     1       5.319  -0.289  -0.735  0.00  0.00    +0.157 C 
ATOM     14  O   UNL     1       6.574  -0.215  -0.810  0.00  0.00    -0.293 OA
ATOM     15  C   UNL     1       4.634   0.111   0.501  0.00  0.00    +0.050 C 
ATOM     16  C   UNL     1       3.296   0.172   0.573  0.00  0.00    -0.041 C 
ATOM     17  C   UNL     1       2.664   0.487   1.906  0.00  0.00    +0.036 C 
ATOM     18  C   UNL     1       1.212   0.926   1.750  0.00  0.00    +0.013 C 
ATOM     19  C   UNL     1       0.451  -0.074   0.864  0.00  0.00    +0.019 C 
ENDROOT
BRANCH   4  20
ATOM     20  O   UNL     1      -4.172  -1.186  -0.342  0.00  0.00    -0.387 OA
ATOM     21  H   UNL     1      -5.046  -1.081   0.117  0.00  0.00    +0.210 HD
ENDBRANCH   4  20
BRANCH   4  22
ATOM     22  C   UNL     1      -3.789   1.190  -0.571  0.00  0.00    +0.153 C 
BRANCH  22  23
ATOM     23  C   UNL     1      -5.170   1.545  -0.205  0.00  0.00    +0.065 C 
ATOM     24  N   UNL     1      -6.255   1.826   0.080  0.00  0.00    -0.196 NA
ENDBRANCH  22  23
ENDBRANCH   4  22
TORSDOF 3
REMARK  Name = 
REMARK  12 active torsions:
REMARK  status: ('A' for Active; 'I' for Inactive)
REMARK    1  A    between atoms: C_4  and  O_5
REMARK    2  A    between atoms: C_4  and  C_6
REMARK    3  A    between atoms: C_6  and  C_7
REMARK    4  A    between atoms: C_9  and  C_10
REMARK    5  A    between atoms: C_27  and  O_28
REMARK    6  A    between atoms: O_28  and  C_29
REMARK    7  A    between atoms: C_29  and  C_31
REMARK    8  A    between atoms: C_31  and  C_32
REMARK    9  A    between atoms: C_32  and  C_33
REMARK   10  A    between atoms: C_33  and  C_34
REMARK   11  A    between atoms: C_35  and  C_36
REMARK   12  A    between atoms: C_46  and  O_47
REMARK                            x       y       z     vdW  Elec       q    Type
REMARK                         _______ _______ _______ _____ _____    ______ ____
ROOT
ATOM      1  C   UNL     1      -0.757  -1.619   0.576  0.00  0.00    +0.002 C 
ATOM      2  C   UNL     1      -0.246  -2.704   1.515  0.00  0.00    +0.008 C 
ATOM      3  C   UNL     1       1.262  -2.767   1.224  0.00  0.00    +0.045 C 
ATOM      4  C   UNL     1       1.590  -1.577   0.297  0.00  0.00    +0.183 C 
ATOM      5  C   UNL     1       0.398  -0.611   0.479  0.00  0.00    +0.008 C 
ATOM      6  C   UNL     1       0.611   0.245   1.769  0.00  0.00    +0.015 C 
ATOM      7  C   UNL     1       0.112   0.316  -0.724  0.00  0.00    +0.011 C 
ATOM      8  C   UNL     1      -1.268   1.012  -0.596  0.00  0.00    +0.009 C 
ATOM      9  C   UNL     1      -2.440   0.020  -0.312  0.00  0.00    +0.023 C 
ATOM     10  C   UNL     1      -3.795   0.695  -0.089  0.00  0.00    -0.041 A 
ATOM     11  C   UNL     1      -4.792   0.055   0.698  0.00  0.00    -0.040 A 
ATOM     12  C   UNL     1      -4.520  -1.216   1.476  0.00  0.00    +0.036 C 
ATOM     13  C   UNL     1      -3.247  -1.943   1.034  0.00  0.00    +0.009 C 
ATOM     14  C   UNL     1      -2.103  -0.934   0.873  0.00  0.00    +0.000 C 
ATOM     15  C   UNL     1      -6.057   0.649   0.841  0.00  0.00    +0.049 A 
ATOM     16  C   UNL     1      -6.369   1.832   0.173  0.00  0.00    +0.117 A 
ATOM     17  C   UNL     1      -5.413   2.439  -0.644  0.00  0.00    +0.046 A 
ATOM     18  C   UNL     1      -4.145   1.873  -0.785  0.00  0.00    +0.008 A 
ENDROOT
BRANCH  16  19
ATOM     19  O   UNL     1      -7.637   2.393   0.321  0.00  0.00    -0.507 OA
ATOM     20  H   UNL     1      -7.895   3.249  -0.157  0.00  0.00    +0.292 HD
ENDBRANCH  16  19
BRANCH   4  21
ATOM     21  O   UNL     1       2.846  -0.996   0.659  0.00  0.00    -0.461 OA
BRANCH  21  22
ATOM     22  C   UNL     1       3.604  -0.190  -0.199  0.00  0.00    +0.307 C 
ATOM     23  O   UNL     1       3.248  -0.014  -1.397  0.00  0.00    -0.251 OA
BRANCH  22  24
ATOM     24  C   UNL     1       4.825   0.497   0.338  0.00  0.00    +0.120 C 
BRANCH  24  25
ATOM     25  C   UNL     1       6.026   0.432  -0.622  0.00  0.00    +0.011 C 
BRANCH  25  26
ATOM     26  C   UNL     1       5.992   1.550  -1.676  0.00  0.00    -0.003 C 
ATOM     27  C   UNL     1       7.219   1.491  -2.580  0.00  0.00    +0.004 C 
ENDBRANCH  25  26
ENDBRANCH  24  25
ENDBRANCH  22  24
ENDBRANCH  21  22
ENDBRANCH   4  21
TORSDOF 6
