REMARK  Name = 
REMARK  4 active torsions:
REMARK  status: ('A' for Active; 'I' for Inactive)
REMARK    1  A    between atoms: C_1  and  C_2
REMARK    2  A    between atoms: C_13  and  O_14
REMARK    3  A    between atoms: O_14  and  S_15
REMARK    4  A    between atoms: S_15  and  O_16
REMARK                            x       y       z     vdW  Elec       q    Type
REMARK                         _______ _______ _______ _____ _____    ______ ____
ROOT
ATOM      1  C   UNL     1      -3.099   0.454   1.828  0.00  0.00    +0.019 C 
ATOM      2  C   UNL     1      -3.167  -0.310   0.476  0.00  0.00    +0.029 C 
ATOM      3  C   UNL     1      -2.647  -1.752   0.635  0.00  0.00    +0.015 C 
ATOM      4  C   UNL     1      -1.114  -1.764   0.889  0.00  0.00    +0.009 C 
ATOM      5  C   UNL     1      -0.296  -0.911  -0.136  0.00  0.00    +0.023 C 
ATOM      6  C   UNL     1      -0.908   0.510  -0.334  0.00  0.00    +0.001 C 
ATOM      7  C   UNL     1      -0.130   1.233  -1.438  0.00  0.00    +0.009 C 
ATOM      8  C   UNL     1       1.308   1.488  -0.978  0.00  0.00    +0.036 C 
ATOM      9  C   UNL     1       1.953   0.297  -0.299  0.00  0.00    -0.040 A 
ATOM     10  C   UNL     1       1.196  -0.807   0.180  0.00  0.00    -0.041 A 
ATOM     11  C   UNL     1       1.883  -1.868   0.805  0.00  0.00    +0.008 A 
ATOM     12  C   UNL     1       3.261  -1.806   1.015  0.00  0.00    +0.049 A 
ATOM     13  C   UNL     1       3.999  -0.702   0.588  0.00  0.00    +0.159 A 
ATOM     14  C   UNL     1       3.338   0.348  -0.069  0.00  0.00    +0.052 A 
ATOM     15  C   UNL     1      -2.395   0.337  -0.682  0.00  0.00    +0.006 C 
ATOM     16  C   UNL     1      -3.248   1.532  -1.115  0.00  0.00    +0.012 C 
ATOM     17  C   UNL     1      -4.687   1.000  -0.985  0.00  0.00    +0.075 C 
ATOM     18  C   UNL     1      -4.559  -0.156  -0.039  0.00  0.00    +0.139 C 
ATOM     19  O   UNL     1      -5.502  -0.847   0.315  0.00  0.00    -0.297 OA
ENDROOT
BRANCH  13  20
ATOM     20  O   UNL     1       5.379  -0.696   0.834  0.00  0.00    -0.325 OA
BRANCH  20  21
ATOM     21  S   UNL     1       6.447   0.565   0.385  0.00  0.00    +0.251 S 
ATOM     22  O   UNL     1       6.032   1.842   1.059  0.00  0.00    -0.108 OA
ATOM     23  O   UNL     1       6.424   0.751  -1.106  0.00  0.00    -0.108 OA
BRANCH  21  24
ATOM     24  O   UNL     1       8.006   0.170   0.872  0.00  0.00    -0.222 OA
ATOM     25  H   UNL     1       8.151  -0.750   0.533  0.00  0.00    +0.248 HD
ENDBRANCH  21  24
ENDBRANCH  20  21
ENDBRANCH  13  20
TORSDOF 3
