REMARK  Name = 
REMARK  2 active torsions:
REMARK  status: ('A' for Active; 'I' for Inactive)
REMARK    1  A    between atoms: C_6  and  C_7
REMARK    2  A    between atoms: C_17  and  O_18
REMARK                            x       y       z     vdW  Elec       q    Type
REMARK                         _______ _______ _______ _____ _____    ______ ____
ROOT
ATOM      1  C   UNL     1       1.741  -0.533  -0.508  0.00  0.00    +0.006 C 
ATOM      2  C   UNL     1       2.826  -1.569  -0.210  0.00  0.00    +0.012 C 
ATOM      3  C   UNL     1       4.116  -0.868  -0.672  0.00  0.00    +0.075 C 
ATOM      4  C   UNL     1       3.755   0.587  -0.670  0.00  0.00    +0.139 C 
ATOM      5  O   UNL     1       4.529   1.477  -0.988  0.00  0.00    -0.297 OA
ATOM      6  C   UNL     1       2.372   0.823  -0.162  0.00  0.00    +0.029 C 
ATOM      7  C   UNL     1       2.495   1.129   1.357  0.00  0.00    +0.019 C 
ATOM      8  C   UNL     1       1.552   1.914  -0.876  0.00  0.00    +0.015 C 
ATOM      9  C   UNL     1       0.058   1.853  -0.454  0.00  0.00    +0.009 C 
ATOM     10  C   UNL     1      -0.571   0.424  -0.561  0.00  0.00    +0.023 C 
ATOM     11  C   UNL     1      -1.999   0.323  -0.025  0.00  0.00    -0.041 A 
ATOM     12  C   UNL     1      -2.503  -0.927   0.432  0.00  0.00    -0.040 A 
ATOM     13  C   UNL     1      -1.626  -2.153   0.575  0.00  0.00    +0.036 C 
ATOM     14  C   UNL     1      -0.287  -2.042  -0.160  0.00  0.00    +0.009 C 
ATOM     15  C   UNL     1       0.334  -0.664   0.096  0.00  0.00    +0.001 C 
ATOM     16  C   UNL     1      -3.840  -1.028   0.851  0.00  0.00    +0.049 A 
ATOM     17  C   UNL     1      -4.695   0.072   0.784  0.00  0.00    +0.117 A 
ATOM     18  C   UNL     1      -4.220   1.290   0.294  0.00  0.00    +0.046 A 
ATOM     19  C   UNL     1      -2.892   1.413  -0.118  0.00  0.00    +0.008 A 
ENDROOT
BRANCH  17  20
ATOM     20  O   UNL     1      -6.018  -0.058   1.202  0.00  0.00    -0.507 OA
ATOM     21  H   UNL     1      -6.664   0.721   1.165  0.00  0.00    +0.292 HD
ENDBRANCH  17  20
TORSDOF 1
