REMARK  Name = 
REMARK  8 active torsions:
REMARK  status: ('A' for Active; 'I' for Inactive)
REMARK    1  A    between atoms: C_4  and  O_5
REMARK    2  A    between atoms: C_6  and  C_7
REMARK    3  A    between atoms: C_14  and  O_15
REMARK    4  A    between atoms: O_15  and  C_16
REMARK    5  A    between atoms: N_18  and  C_19
REMARK    6  A    between atoms: N_18  and  C_22
REMARK    7  A    between atoms: C_19  and  C_20
REMARK    8  A    between atoms: C_22  and  C_23
REMARK                            x       y       z     vdW  Elec       q    Type
REMARK                         _______ _______ _______ _____ _____    ______ ____
ROOT
ATOM      1  C   UNL     1      -4.119   0.209  -0.724  0.00  0.00    +0.001 C 
ATOM      2  C   UNL     1      -5.089   1.282  -1.204  0.00  0.00    +0.007 C 
ATOM      3  C   UNL     1      -6.472   0.758  -0.774  0.00  0.00    +0.032 C 
ATOM      4  C   UNL     1      -6.207  -0.468   0.139  0.00  0.00    +0.121 C 
ATOM      5  C   UNL     1      -4.735  -0.320   0.579  0.00  0.00    -0.003 C 
ATOM      6  C   UNL     1      -4.633   0.673   1.781  0.00  0.00    +0.014 C 
ATOM      7  C   UNL     1      -4.028  -1.646   0.932  0.00  0.00    +0.010 C 
ATOM      8  C   UNL     1      -2.492  -1.460   1.047  0.00  0.00    +0.009 C 
ATOM      9  C   UNL     1      -1.860  -0.752  -0.193  0.00  0.00    +0.023 C 
ATOM     10  C   UNL     1      -0.361  -0.473  -0.062  0.00  0.00    -0.041 A 
ATOM     11  C   UNL     1       0.484  -1.347   0.655  0.00  0.00    +0.008 A 
ATOM     12  C   UNL     1       1.863  -1.136   0.702  0.00  0.00    +0.047 A 
ATOM     13  C   UNL     1       2.441  -0.067   0.004  0.00  0.00    +0.134 A 
ATOM     14  C   UNL     1       1.621   0.796  -0.722  0.00  0.00    +0.050 A 
ATOM     15  C   UNL     1       0.234   0.592  -0.791  0.00  0.00    -0.040 A 
ATOM     16  C   UNL     1      -0.585   1.591  -1.580  0.00  0.00    +0.036 C 
ATOM     17  C   UNL     1      -2.022   1.134  -1.845  0.00  0.00    +0.009 C 
ATOM     18  C   UNL     1      -2.627   0.553  -0.561  0.00  0.00    +0.000 C 
ENDROOT
BRANCH   4  19
ATOM     19  O   UNL     1      -7.113  -0.583   1.213  0.00  0.00    -0.391 OA
ATOM     20  H   UNL     1      -7.274   0.318   1.595  0.00  0.00    +0.210 HD
ENDBRANCH   4  19
BRANCH  13  21
ATOM     21  O   UNL     1       3.819   0.194   0.041  0.00  0.00    -0.411 OA
BRANCH  21  22
ATOM     22  C   UNL     1       4.826  -0.771   0.181  0.00  0.00    +0.408 C 
ATOM     23  O   UNL     1       4.572  -1.990  -0.025  0.00  0.00    -0.226 OA
ATOM     24  N   UNL     1       6.167  -0.359   0.520  0.00  0.00    -0.265 N 
BRANCH  24  25
ATOM     25  C   UNL     1       6.376   0.942   1.177  0.00  0.00    +0.127 C 
BRANCH  25  26
ATOM     26  C   UNL     1       6.987   1.970   0.225  0.00  0.00    +0.127 C 
ATOM     27 CL   UNL     1       5.905   2.312  -1.151  0.00  0.00    -0.124 Cl
ENDBRANCH  25  26
ENDBRANCH  24  25
BRANCH  24  28
ATOM     28  C   UNL     1       7.284  -1.317   0.444  0.00  0.00    +0.127 C 
BRANCH  28  29
ATOM     29  C   UNL     1       7.547  -1.798  -0.989  0.00  0.00    +0.127 C 
ATOM     30 CL   UNL     1       8.081  -0.471  -2.051  0.00  0.00    -0.124 Cl
ENDBRANCH  28  29
ENDBRANCH  24  28
ENDBRANCH  21  22
ENDBRANCH  13  21
TORSDOF 7
