REMARK  Name = 
REMARK  3 active torsions:
REMARK  status: ('A' for Active; 'I' for Inactive)
REMARK    1  A    between atoms: C_4  and  O_5
REMARK    2  A    between atoms: C_6  and  C_7
REMARK    3  A    between atoms: C_17  and  O_18
REMARK                            x       y       z     vdW  Elec       q    Type
REMARK                         _______ _______ _______ _____ _____    ______ ____
ROOT
ATOM      1  C   UNL     1      -1.524   0.035  -1.006  0.00  0.00    +0.001 C 
ATOM      2  C   UNL     1      -2.516   1.048  -1.566  0.00  0.00    +0.007 C 
ATOM      3  C   UNL     1      -3.894   0.420  -1.280  0.00  0.00    +0.032 C 
ATOM      4  C   UNL     1      -3.634  -0.802  -0.362  0.00  0.00    +0.121 C 
ATOM      5  C   UNL     1      -2.225  -0.561   0.223  0.00  0.00    -0.003 C 
ATOM      6  C   UNL     1      -2.312   0.413   1.441  0.00  0.00    +0.014 C 
ATOM      7  C   UNL     1      -1.464  -1.842   0.627  0.00  0.00    +0.010 C 
ATOM      8  C   UNL     1       0.035  -1.551   0.896  0.00  0.00    +0.009 C 
ATOM      9  C   UNL     1       0.735  -0.781  -0.267  0.00  0.00    +0.023 C 
ATOM     10  C   UNL     1       2.190  -0.403   0.014  0.00  0.00    -0.041 A 
ATOM     11  C   UNL     1       2.778   0.714  -0.642  0.00  0.00    -0.040 A 
ATOM     12  C   UNL     1       1.973   1.668  -1.500  0.00  0.00    +0.036 C 
ATOM     13  C   UNL     1       0.603   1.120  -1.906  0.00  0.00    +0.009 C 
ATOM     14  C   UNL     1      -0.082   0.476  -0.694  0.00  0.00    +0.000 C 
ATOM     15  C   UNL     1       4.136   1.010  -0.435  0.00  0.00    +0.049 A 
ATOM     16  C   UNL     1       4.930   0.192   0.373  0.00  0.00    +0.117 A 
ATOM     17  C   UNL     1       4.371  -0.930   0.981  0.00  0.00    +0.046 A 
ATOM     18  C   UNL     1       3.021  -1.235   0.795  0.00  0.00    +0.008 A 
ENDROOT
BRANCH   4  19
ATOM     19  O   UNL     1      -4.629  -1.000   0.616  0.00  0.00    -0.391 OA
ATOM     20  H   UNL     1      -4.888  -0.121   0.994  0.00  0.00    +0.210 HD
ENDBRANCH   4  19
BRANCH  16  21
ATOM     21  O   UNL     1       6.277   0.483   0.574  0.00  0.00    -0.507 OA
ATOM     22  H   UNL     1       6.714   1.291   0.145  0.00  0.00    +0.292 HD
ENDBRANCH  16  21
TORSDOF 2
