REMARK  Name = 
REMARK  3 active torsions:
REMARK  status: ('A' for Active; 'I' for Inactive)
REMARK    1  A    between atoms: C_1  and  N_2
REMARK    2  A    between atoms: C_8  and  O_10
REMARK    3  A    between atoms: O_10  and  C_11
REMARK                            x       y       z     vdW  Elec       q    Type
REMARK                         _______ _______ _______ _____ _____    ______ ____
ROOT
ATOM      1  C   UNL     1      -1.977  -0.665  -0.914  0.00  0.00    +0.328 C 
ATOM      2  N   UNL     1      -2.903   0.036  -0.004  0.00  0.00    -0.208 N 
ATOM      3  C   UNL     1      -3.696  -0.944   0.675  0.00  0.00    +0.275 C 
ATOM      4  O   UNL     1      -4.591  -0.688   1.524  0.00  0.00    -0.268 OA
ATOM      5  C   UNL     1      -3.319  -2.253   0.224  0.00  0.00    +0.153 A 
ATOM      6  N   UNL     1      -3.807  -3.467   0.575  0.00  0.00    -0.247 NA
ATOM      7  C   UNL     1      -3.279  -4.576  -0.020  0.00  0.00    +0.131 A 
ATOM      8  C   UNL     1      -2.253  -4.440  -0.981  0.00  0.00    +0.131 A 
ATOM      9  N   UNL     1      -1.788  -3.199  -1.312  0.00  0.00    -0.251 NA
ATOM     10  C   UNL     1      -2.325  -2.112  -0.703  0.00  0.00    +0.131 A 
ATOM     11  C   UNL     1      -2.985   1.462   0.183  0.00  0.00    +0.131 A 
ATOM     12  N   UNL     1      -3.796   1.974   1.151  0.00  0.00    -0.238 NA
ATOM     13  C   UNL     1      -3.906   3.311   1.373  0.00  0.00    +0.132 A 
ATOM     14  C   UNL     1      -3.174   4.211   0.596  0.00  0.00    +0.059 A 
ATOM     15 CL   UNL     1      -3.307   5.938   0.874  0.00  0.00    -0.082 Cl
ATOM     16  C   UNL     1      -2.334   3.720  -0.405  0.00  0.00    +0.025 A 
ATOM     17  C   UNL     1      -2.235   2.343  -0.616  0.00  0.00    +0.045 A 
ENDROOT
BRANCH   1  18
ATOM     18  O   UNL     1      -0.631  -0.409  -0.519  0.00  0.00    -0.422 OA
BRANCH  18  26
ATOM     19  C   UNL     1       5.644   0.886   0.329  0.00  0.00    +0.105 C 
ATOM     20  N   UNL     1       4.410   0.107   0.145  0.00  0.00    -0.302 NA
ATOM     21  C   UNL     1       4.209  -0.184  -1.286  0.00  0.00    +0.103 C 
ATOM     22  C   UNL     1       2.973  -1.066  -1.479  0.00  0.00    +0.126 C 
ATOM     23  N   UNL     1       1.809  -0.474  -0.807  0.00  0.00    -0.265 N 
ATOM     24  C   UNL     1       1.981   0.026   0.563  0.00  0.00    +0.126 C 
ATOM     25  C   UNL     1       3.259   0.862   0.671  0.00  0.00    +0.103 C 
ATOM     26  C   UNL     1       0.481  -0.736  -1.302  0.00  0.00    +0.405 C 
ATOM     27  O   UNL     1       0.319  -1.257  -2.441  0.00  0.00    -0.226 OA
ENDBRANCH  18  26
ENDBRANCH   1  18
TORSDOF 2
