REMARK  Name = 
REMARK  13 active torsions:
REMARK  status: ('A' for Active; 'I' for Inactive)
REMARK    1  A    between atoms: C_1  and  C_2
REMARK    2  A    between atoms: C_2  and  CA_3
REMARK    3  A    between atoms: CA_3  and  C_4
REMARK    4  A    between atoms: CA_3  and  N_6
REMARK    5  A    between atoms: C_4  and  O_5
REMARK    6  A    between atoms: N_6  and  C_7
REMARK    7  A    between atoms: C_7  and  C_8
REMARK    8  A    between atoms: C_8  and  N_9
REMARK    9  A    between atoms: N_9  and  CA_10
REMARK   10  A    between atoms: CA_10  and  C_11
REMARK   11  A    between atoms: CA_10  and  C_13
REMARK   12  A    between atoms: C_11  and  C_12
REMARK   13  A    between atoms: C_13  and  O_14
REMARK                            x       y       z     vdW  Elec       q    Type
REMARK                         _______ _______ _______ _____ _____    ______ ____
ROOT
ATOM      1  C   UNL     1      -0.626  -1.164  -0.677  0.00  0.00    +0.096 C 
ENDROOT
BRANCH   1   2
ATOM      2  N   UNL     1      -1.742  -1.198   0.281  0.00  0.00    -0.310 NA
ATOM      3  H   UNL     1      -2.319  -2.054   0.105  0.00  0.00    +0.122 HD
BRANCH   2   4
ATOM      4  CA  UNL     1      -2.595   0.006   0.213  0.00  0.00    +0.079 C 
BRANCH   4   6
ATOM      5  C   UNL     1      -4.471   1.146  -1.119  0.00  0.00    +0.005 C 
ATOM      6  C   UNL     1      -3.697  -0.149  -0.868  0.00  0.00    +0.017 C 
ENDBRANCH   4   6
BRANCH   4   7
ATOM      7  C   UNL     1      -3.175   0.277   1.613  0.00  0.00    +0.174 C 
BRANCH   7   8
ATOM      8  O   UNL     1      -3.992  -0.783   2.037  0.00  0.00    -0.393 OA
ATOM      9  H   UNL     1      -4.921  -0.553   1.776  0.00  0.00    +0.209 HD
ENDBRANCH   7   8
ENDBRANCH   4   7
ENDBRANCH   2   4
ENDBRANCH   1   2
BRANCH   1  10
ATOM     10  C   UNL     1       0.598  -0.506  -0.038  0.00  0.00    +0.096 C 
BRANCH  10  11
ATOM     11  N   UNL     1       1.725  -0.533  -0.984  0.00  0.00    -0.310 NA
ATOM     12  H   UNL     1       1.528   0.155  -1.748  0.00  0.00    +0.122 HD
BRANCH  11  13
ATOM     13  CA  UNL     1       3.034  -0.201  -0.381  0.00  0.00    +0.079 C 
BRANCH  13  14
ATOM     14  C   UNL     1       3.017   1.178   0.329  0.00  0.00    +0.017 C 
ATOM     15  C   UNL     1       4.418   1.719   0.616  0.00  0.00    +0.005 C 
ENDBRANCH  13  14
BRANCH  13  16
ATOM     16  C   UNL     1       3.515  -1.348   0.538  0.00  0.00    +0.174 C 
BRANCH  16  17
ATOM     17  O   UNL     1       4.912  -1.339   0.666  0.00  0.00    -0.393 OA
ATOM     18  H   UNL     1       5.279  -1.718  -0.175  0.00  0.00    +0.209 HD
ENDBRANCH  16  17
ENDBRANCH  13  16
ENDBRANCH  11  13
ENDBRANCH  10  11
ENDBRANCH   1  10
TORSDOF 11
