REMARK  Name = 
REMARK  20 active torsions:
REMARK  status: ('A' for Active; 'I' for Inactive)
REMARK    1  A    between atoms: N_1  and  CA_2
REMARK    2  A    between atoms: CA_2  and  C_3
REMARK    3  A    between atoms: C_3  and  O_4
REMARK    4  A    between atoms: C_5  and  C_6
REMARK    5  A    between atoms: C_6  and  C_7
REMARK    6  A    between atoms: C_7  and  C_8
REMARK    7  A    between atoms: C_8  and  C_9
REMARK    8  A    between atoms: C_9  and  C_10
REMARK    9  A    between atoms: C_10  and  C_11
REMARK   10  A    between atoms: C_11  and  C_12
REMARK   11  A    between atoms: C_12  and  C_13
REMARK   12  A    between atoms: C_14  and  C_15
REMARK   13  A    between atoms: C_15  and  C_16
REMARK   14  A    between atoms: C_16  and  C_17
REMARK   15  A    between atoms: C_17  and  C_18
REMARK   16  A    between atoms: C_18  and  C_19
REMARK   17  A    between atoms: C_19  and  C_20
REMARK   18  A    between atoms: C_20  and  C_21
REMARK   19  A    between atoms: C_21  and  C_22
REMARK   20  A    between atoms: C_22  and  O_23
REMARK                            x       y       z     vdW  Elec       q    Type
REMARK                         _______ _______ _______ _____ _____    ______ ____
ROOT
ATOM      1  CA  GLY A   1      -0.422   0.545   0.051  0.00  0.00    +0.105 C 
ENDROOT
BRANCH   1   2
ATOM      2  N   GLY A   1      -1.335  -0.508   0.485  0.00  0.00    -0.328 NA
ATOM      3  H1  GLY A   1      -2.297  -0.245   0.173  0.00  0.00    +0.118 HD
ATOM      4  H2  GLY A   1      -1.089  -1.387  -0.026  0.00  0.00    +0.118 HD
ENDBRANCH   1   2
BRANCH   1   5
ATOM      5  C   GLY A   1       0.964   0.348   0.666  0.00  0.00    +0.170 C 
BRANCH   5   6
ATOM      6  O   GLY A   1       1.579  -0.799   0.144  0.00  0.00    -0.394 OA
ATOM      7  H   GLY A   1       1.285  -1.563   0.705  0.00  0.00    +0.209 HD
ENDBRANCH   5   6
ENDBRANCH   1   5
TORSDOF 3
REMARK  Name = 
REMARK  20 active torsions:
REMARK  status: ('A' for Active; 'I' for Inactive)
REMARK    1  A    between atoms: N_1  and  CA_2
REMARK    2  A    between atoms: CA_2  and  C_3
REMARK    3  A    between atoms: C_3  and  O_4
REMARK    4  A    between atoms: C_5  and  C_6
REMARK    5  A    between atoms: C_6  and  C_7
REMARK    6  A    between atoms: C_7  and  C_8
REMARK    7  A    between atoms: C_8  and  C_9
REMARK    8  A    between atoms: C_9  and  C_10
REMARK    9  A    between atoms: C_10  and  C_11
REMARK   10  A    between atoms: C_11  and  C_12
REMARK   11  A    between atoms: C_12  and  C_13
REMARK   12  A    between atoms: C_14  and  C_15
REMARK   13  A    between atoms: C_15  and  C_16
REMARK   14  A    between atoms: C_16  and  C_17
REMARK   15  A    between atoms: C_17  and  C_18
REMARK   16  A    between atoms: C_18  and  C_19
REMARK   17  A    between atoms: C_19  and  C_20
REMARK   18  A    between atoms: C_20  and  C_21
REMARK   19  A    between atoms: C_21  and  C_22
REMARK   20  A    between atoms: C_22  and  O_23
REMARK                            x       y       z     vdW  Elec       q    Type
REMARK                         _______ _______ _______ _____ _____    ______ ____
ROOT
ATOM      1  C   UNL     1      -1.229  -0.907   0.964  0.00  0.00    +0.027 C 
ENDROOT
BRANCH   1   3
ATOM      2  C   UNL     1       0.178   1.179   0.704  0.00  0.00    -0.031 C 
ATOM      3  C   UNL     1      -0.781   0.483   1.342  0.00  0.00    -0.031 C 
BRANCH   2   4
ATOM      4  C   UNL     1       1.019   0.644  -0.431  0.00  0.00    +0.027 C 
BRANCH   4   5
ATOM      5  C   UNL     1       2.267  -0.089   0.080  0.00  0.00    +0.004 C 
BRANCH   5   6
ATOM      6  C   UNL     1       3.290   0.876   0.704  0.00  0.00    +0.000 C 
BRANCH   6   7
ATOM      7  C   UNL     1       4.528   0.151   1.254  0.00  0.00    +0.000 C 
BRANCH   7   8
ATOM      8  C   UNL     1       5.427  -0.414   0.144  0.00  0.00    -0.000 C 
BRANCH   8   9
ATOM      9  C   UNL     1       6.745  -0.950   0.724  0.00  0.00    -0.000 C 
BRANCH   9  11
ATOM     10  C   UNL     1       8.174  -0.712  -1.378  0.00  0.00    +0.004 C 
ATOM     11  C   UNL     1       7.606  -1.666  -0.327  0.00  0.00    -0.003 C 
ENDBRANCH   9  11
ENDBRANCH   8   9
ENDBRANCH   7   8
ENDBRANCH   6   7
ENDBRANCH   5   6
ENDBRANCH   4   5
ENDBRANCH   2   4
ENDBRANCH   1   3
BRANCH   1  12
ATOM     12  C   UNL     1      -2.186  -0.918  -0.245  0.00  0.00    +0.004 C 
BRANCH  12  13
ATOM     13  C   UNL     1      -3.659  -0.657   0.118  0.00  0.00    +0.000 C 
BRANCH  13  14
ATOM     14  C   UNL     1      -3.958   0.830   0.365  0.00  0.00    +0.000 C 
BRANCH  14  15
ATOM     15  C   UNL     1      -5.444   1.095   0.660  0.00  0.00    +0.001 C 
BRANCH  15  16
ATOM     16  C   UNL     1      -6.362   0.880  -0.563  0.00  0.00    +0.011 C 
BRANCH  16  17
ATOM     17  C   UNL     1      -7.216  -0.387  -0.427  0.00  0.00    +0.120 C 
BRANCH  17  18
ATOM     18  C   UNL     1      -8.038  -0.599  -1.658  0.00  0.00    +0.305 C 
ATOM     19  O   UNL     1      -7.627  -1.368  -2.567  0.00  0.00    -0.251 OA
BRANCH  18  20
ATOM     20  O   UNL     1      -9.235   0.092  -1.819  0.00  0.00    -0.481 OA
ATOM     21  H   UNL     1      -9.794  -0.027  -2.655  0.00  0.00    +0.295 HD
ENDBRANCH  18  20
ENDBRANCH  17  18
ENDBRANCH  16  17
ENDBRANCH  15  16
ENDBRANCH  14  15
ENDBRANCH  13  14
ENDBRANCH  12  13
ENDBRANCH   1  12
TORSDOF 16
