REMARK  Name = 
REMARK  8 active torsions:
REMARK  status: ('A' for Active; 'I' for Inactive)
REMARK    1  A    between atoms: C_1  and  C_2
REMARK    2  A    between atoms: C_2  and  C_3
REMARK    3  A    between atoms: C_3  and  C_5
REMARK    4  A    between atoms: C_5  and  C_7
REMARK    5  A    between atoms: C_12  and  O_13
REMARK    6  A    between atoms: O_13  and  C_14
REMARK    7  A    between atoms: C_14  and  C_15
REMARK    8  A    between atoms: C_15  and  O_16
REMARK                            x       y       z     vdW  Elec       q    Type
REMARK                         _______ _______ _______ _____ _____    ______ ____
ROOT
ATOM      1  C   UNL     1       0.563  -0.657  -0.110  0.00  0.00    +0.042 A 
ATOM      2  C   UNL     1      -0.159   0.062   0.867  0.00  0.00    +0.074 A 
ATOM      3 CL   UNL     1       0.611   0.534   2.386  0.00  0.00    -0.081 Cl
ATOM      4  C   UNL     1      -1.518   0.362   0.651  0.00  0.00    +0.101 A 
ATOM      5 CL   UNL     1      -2.439   1.264   1.855  0.00  0.00    -0.078 Cl
ATOM      6  C   UNL     1      -2.162  -0.062  -0.523  0.00  0.00    +0.141 A 
ATOM      7  C   UNL     1      -1.437  -0.795  -1.480  0.00  0.00    +0.048 A 
ATOM      8  C   UNL     1      -0.091  -1.093  -1.270  0.00  0.00    +0.017 A 
ENDROOT
BRANCH   1   9
ATOM      9  C   UNL     1       1.992  -0.994   0.067  0.00  0.00    +0.190 C 
ATOM     10  O   UNL     1       2.324  -2.210   0.087  0.00  0.00    -0.287 OA
BRANCH   9  11
ATOM     11  C   UNL     1       3.038   0.052   0.191  0.00  0.00    -0.007 C 
ATOM     12  C   UNL     1       2.743   1.322  -0.107  0.00  0.00    +0.016 C 
BRANCH  11  14
ATOM     13  C   UNL     1       4.453  -0.300   2.218  0.00  0.00    +0.009 C 
ATOM     14  C   UNL     1       4.416  -0.315   0.693  0.00  0.00    +0.035 C 
ENDBRANCH  11  14
ENDBRANCH   9  11
ENDBRANCH   1   9
BRANCH   6  15
ATOM     15  O   UNL     1      -3.517   0.259  -0.702  0.00  0.00    -0.479 OA
BRANCH  15  16
ATOM     16  C   UNL     1      -4.291  -0.103  -1.842  0.00  0.00    +0.349 C 
BRANCH  16  17
ATOM     17  C   UNL     1      -5.678   0.419  -1.677  0.00  0.00    +0.343 C 
ATOM     18  O   UNL     1      -6.565  -0.301  -1.144  0.00  0.00    -0.247 OA
BRANCH  17  19
ATOM     19  O   UNL     1      -5.980   1.719  -2.068  0.00  0.00    -0.478 OA
ATOM     20  H   UNL     1      -6.913   2.094  -1.949  0.00  0.00    +0.295 HD
ENDBRANCH  17  19
ENDBRANCH  16  17
ENDBRANCH  15  16
ENDBRANCH   6  15
TORSDOF 7
