REMARK  Name = 
REMARK  2 active torsions:
REMARK  status: ('A' for Active; 'I' for Inactive)
REMARK    1  A    between atoms: C_1  and  C_2
REMARK    2  A    between atoms: C_2  and  O_3
REMARK                            x       y       z     vdW  Elec       q    Type
REMARK                         _______ _______ _______ _____ _____    ______ ____
ROOT
ATOM      1  C   UNL     1      -0.925   0.074   0.033  0.00  0.00    +0.034 C 
ATOM      2  C   UNL     1       0.512  -0.419  -0.074  0.00  0.00    +0.152 C 
ENDROOT
BRANCH   2   3
ATOM      3  O   UNL     1       1.378   0.449   0.604  0.00  0.00    -0.395 OA
ATOM      4  H   UNL     1       1.495   1.246   0.023  0.00  0.00    +0.209 HD
ENDBRANCH   2   3
TORSDOF 1
