REMARK  Name = 
REMARK  5 active torsions:
REMARK  status: ('A' for Active; 'I' for Inactive)
REMARK    1  A    between atoms: C_3  and  C_4
REMARK    2  A    between atoms: C_4  and  O_5
REMARK    3  A    between atoms: C_4  and  C_6
REMARK    4  A    between atoms: C_4  and  C_8
REMARK    5  A    between atoms: C_6  and  C_7
REMARK                            x       y       z     vdW  Elec       q    Type
REMARK                         _______ _______ _______ _____ _____    ______ ____
ROOT
ATOM      1  C   UNL     1       0.212  -0.192   0.033  0.00  0.00    +0.146 C 
ENDROOT
BRANCH   1   4
ATOM      2  C   UNL     1       2.514  -1.134  -0.490  0.00  0.00    +0.079 C 
ATOM      3 CL   UNL     1       3.258  -0.470   0.962  0.00  0.00    -0.092 Cl
ATOM      4  C   UNL     1       1.219  -0.965  -0.809  0.00  0.00    +0.032 C 
ENDBRANCH   1   4
BRANCH   1   5
ATOM      5  O   UNL     1       0.215  -0.671   1.357  0.00  0.00    -0.373 OA
ATOM      6  H   UNL     1      -0.021  -1.635   1.329  0.00  0.00    +0.212 HD
ENDBRANCH   1   5
BRANCH   1   7
ATOM      7  C   UNL     1      -1.204  -0.334  -0.582  0.00  0.00    +0.049 C 
ATOM      8  C   UNL     1      -2.301   0.330   0.257  0.00  0.00    +0.008 C 
ENDBRANCH   1   7
BRANCH   1   9
ATOM      9  C   UNL     1       0.599   1.231   0.045  0.00  0.00    -0.067 C 
ATOM     10  C   UNL     1       0.916   2.395   0.055  0.00  0.00    +0.007 C 
ENDBRANCH   1   9
TORSDOF 4
