REMARK  Name = 
REMARK  3 active torsions:
REMARK  status: ('A' for Active; 'I' for Inactive)
REMARK    1  A    between atoms: C_2  and  O_4
REMARK    2  A    between atoms: O_4  and  C_5
REMARK    3  A    between atoms: C_5  and  C_11
REMARK                            x       y       z     vdW  Elec       q    Type
REMARK                         _______ _______ _______ _____ _____    ______ ____
ROOT
ATOM      1  C   UNL     1       0.358   0.402  -0.108  0.00  0.00    +0.174 C 
ATOM      2  C   UNL     1      -0.587  -0.028   1.058  0.00  0.00    +0.061 C 
ATOM      3  C   UNL     1      -1.547  -1.143   0.633  0.00  0.00    +0.005 C 
ATOM      4  C   UNL     1      -2.482  -0.680  -0.502  0.00  0.00    +0.000 C 
ATOM      5  C   UNL     1      -1.843   0.378  -1.424  0.00  0.00    +0.005 C 
ATOM      6  C   UNL     1      -0.320   0.212  -1.495  0.00  0.00    +0.061 C 
ENDROOT
BRANCH   1   7
ATOM      7  C   UNL     1       0.717   1.829   0.050  0.00  0.00    -0.058 C 
ATOM      8  C   UNL     1       1.008   2.992   0.178  0.00  0.00    +0.008 C 
ENDBRANCH   1   7
BRANCH   1   9
ATOM      9  O   UNL     1       1.551  -0.398  -0.102  0.00  0.00    -0.431 OA
BRANCH   9  11
ATOM     10  N   UNL     1       3.647  -1.281   0.785  0.00  0.00    -0.295 N 
ATOM     11  C   UNL     1       2.534  -0.399   0.900  0.00  0.00    +0.399 C 
ATOM     12  O   UNL     1       2.450   0.371   1.895  0.00  0.00    -0.227 OA
ATOM     13  H   UNL     1       3.726  -1.921  -0.035  0.00  0.00    +0.148 HD
ATOM     14  H   UNL     1       4.390  -1.295   1.519  0.00  0.00    +0.148 HD
ENDBRANCH   9  11
ENDBRANCH   1   9
TORSDOF 3
