REMARK  Name = 
REMARK  4 active torsions:
REMARK  status: ('A' for Active; 'I' for Inactive)
REMARK    1  A    between atoms: C_1  and  C_2
REMARK    2  A    between atoms: C_2  and  C_3
REMARK    3  A    between atoms: C_7  and  C_9
REMARK    4  A    between atoms: C_9  and  N_10
REMARK                            x       y       z     vdW  Elec       q    Type
REMARK                         _______ _______ _______ _____ _____    ______ ____
ROOT
ATOM      1  C   UNL     1       0.953   0.322  -0.822  0.00  0.00    +0.042 A 
ATOM      2  N   UNL     1       0.795   1.658  -0.621  0.00  0.00    -0.260 NA
ATOM      3  C   UNL     1      -0.377   2.182  -0.177  0.00  0.00    +0.111 A 
ATOM      4  C   UNL     1      -1.461   1.345   0.096  0.00  0.00    +0.030 A 
ATOM      5  C   UNL     1      -1.335  -0.042  -0.086  0.00  0.00    +0.006 A 
ATOM      6  C   UNL     1      -0.109  -0.552  -0.549  0.00  0.00    +0.033 A 
ENDROOT
BRANCH   1   8
ATOM      7  C   UNL     1       3.147  -0.597  -0.087  0.00  0.00    +0.010 C 
ATOM      8  C   UNL     1       2.281  -0.206  -1.280  0.00  0.00    +0.052 C 
ENDBRANCH   1   8
BRANCH   5   9
ATOM      9  C   UNL     1      -2.477  -0.944   0.208  0.00  0.00    +0.077 C 
ATOM     10  S   UNL     1      -2.698  -2.321  -0.657  0.00  0.00    -0.035 S 
BRANCH   9  11
ATOM     11  N   UNL     1      -3.419  -0.618   1.235  0.00  0.00    -0.352 N 
ATOM     12  H   UNL     1      -3.260   0.184   1.882  0.00  0.00    +0.143 HD
ATOM     13  H   UNL     1      -4.255  -1.224   1.399  0.00  0.00    +0.143 HD
ENDBRANCH   9  11
ENDBRANCH   5   9
TORSDOF 3
