REMARK  Name = 
REMARK  4 active torsions:
REMARK  status: ('A' for Active; 'I' for Inactive)
REMARK    1  A    between atoms: C_4  and  O_5
REMARK    2  A    between atoms: C_4  and  C_6
REMARK    3  A    between atoms: C_8  and  C_9
REMARK    4  A    between atoms: C_19  and  O_20
REMARK                            x       y       z     vdW  Elec       q    Type
REMARK                         _______ _______ _______ _____ _____    ______ ____
ROOT
ATOM      1  C   UNL     1      -1.258   0.177   0.927  0.00  0.00    +0.002 C 
ATOM      2  C   UNL     1      -2.040  -0.402   2.102  0.00  0.00    +0.008 C 
ATOM      3  C   UNL     1      -3.522  -0.206   1.722  0.00  0.00    +0.049 C 
ATOM      4  C   UNL     1      -3.546   0.306   0.247  0.00  0.00    +0.132 C 
ATOM      5  C   UNL     1      -2.139  -0.096  -0.304  0.00  0.00    +0.011 C 
ATOM      6  C   UNL     1      -2.162  -1.605  -0.723  0.00  0.00    +0.015 C 
ATOM      7  C   UNL     1      -1.581   0.742  -1.485  0.00  0.00    +0.011 C 
ATOM      8  C   UNL     1      -0.085   0.439  -1.750  0.00  0.00    +0.009 C 
ATOM      9  C   UNL     1       0.801   0.555  -0.471  0.00  0.00    +0.023 C 
ATOM     10  C   UNL     1       2.271   0.187  -0.690  0.00  0.00    -0.041 A 
ATOM     11  C   UNL     1       3.058  -0.288   0.396  0.00  0.00    -0.040 A 
ATOM     12  C   UNL     1       2.463  -0.609   1.750  0.00  0.00    +0.036 C 
ATOM     13  C   UNL     1       1.067  -0.019   1.960  0.00  0.00    +0.009 C 
ATOM     14  C   UNL     1       0.205  -0.262   0.714  0.00  0.00    +0.000 C 
ATOM     15  C   UNL     1       4.424  -0.554   0.203  0.00  0.00    +0.049 A 
ATOM     16  C   UNL     1       5.032  -0.312  -1.032  0.00  0.00    +0.117 A 
ATOM     17  C   UNL     1       4.277   0.198  -2.085  0.00  0.00    +0.046 A 
ATOM     18  C   UNL     1       2.916   0.459  -1.916  0.00  0.00    +0.008 A 
ENDROOT
BRANCH   4  19
ATOM     19  O   UNL     1      -4.604  -0.243  -0.510  0.00  0.00    -0.376 OA
ATOM     20  H   UNL     1      -4.737  -1.193  -0.256  0.00  0.00    +0.211 HD
ENDBRANCH   4  19
BRANCH   4  21
ATOM     21  C   UNL     1      -3.744   1.773   0.259  0.00  0.00    -0.070 C 
ATOM     22  C   UNL     1      -3.907   2.967   0.271  0.00  0.00    +0.007 C 
ENDBRANCH   4  21
BRANCH  16  23
ATOM     23  O   UNL     1       6.388  -0.572  -1.220  0.00  0.00    -0.507 OA
ATOM     24  H   UNL     1       6.965  -0.942  -0.474  0.00  0.00    +0.292 HD
ENDBRANCH  16  23
TORSDOF 3
