REMARK  Name = 
REMARK  8 active torsions:
REMARK  status: ('A' for Active; 'I' for Inactive)
REMARK    1  A    between atoms: C_1  and  C_2
REMARK    2  A    between atoms: C_2  and  N_3
REMARK    3  A    between atoms: N_3  and  C_4
REMARK    4  A    between atoms: N_3  and  C_6
REMARK    5  A    between atoms: C_4  and  C_5
REMARK    6  A    between atoms: C_6  and  C_7
REMARK    7  A    between atoms: C_6  and  C_8
REMARK    8  A    between atoms: C_8  and  N_9
REMARK                            x       y       z     vdW  Elec       q    Type
REMARK                         _______ _______ _______ _____ _____    ______ ____
ROOT
ATOM      1  N   UNL     1       1.034  -0.081  -0.523  0.00  0.00    -0.297 N 
ATOM      2  C   UNL     1       1.089   1.328  -0.203  0.00  0.00    +0.048 A 
ATOM      3  C   UNL     1       1.220   2.302  -1.208  0.00  0.00    +0.024 A 
ATOM      4  C   UNL     1       1.412   3.644  -0.867  0.00  0.00    +0.002 A 
ATOM      5  C   UNL     1       1.494   4.023   0.475  0.00  0.00    +0.001 A 
ATOM      6  C   UNL     1       1.367   3.064   1.483  0.00  0.00    +0.017 A 
ATOM      7  C   UNL     1       1.151   1.723   1.147  0.00  0.00    +0.034 A 
ATOM      8  S   UNL     1       0.844   0.512   2.437  0.00  0.00    -0.086 S 
ATOM      9  C   UNL     1       1.909  -0.722   1.686  0.00  0.00    +0.034 A 
ATOM     10  C   UNL     1       2.789  -1.464   2.480  0.00  0.00    +0.017 A 
ATOM     11  C   UNL     1       3.555  -2.483   1.907  0.00  0.00    +0.001 A 
ATOM     12  C   UNL     1       3.451  -2.753   0.540  0.00  0.00    +0.002 A 
ATOM     13  C   UNL     1       2.590  -1.998  -0.262  0.00  0.00    +0.024 A 
ATOM     14  C   UNL     1       1.806  -0.977   0.305  0.00  0.00    +0.048 A 
ENDROOT
BRANCH   1  15
ATOM     15  C   UNL     1       0.291  -0.581  -1.694  0.00  0.00    +0.129 C 
BRANCH  15  16
ATOM     16  C   UNL     1      -1.185  -0.128  -1.667  0.00  0.00    +0.071 C 
ATOM     17  C   UNL     1      -1.973  -0.772  -2.827  0.00  0.00    +0.026 C 
BRANCH  16  18
ATOM     18  N   UNL     1      -1.793  -0.371  -0.328  0.00  0.00    -0.299 NA
BRANCH  18  20
ATOM     19  C   UNL     1      -1.983  -2.098   1.427  0.00  0.00    +0.020 C 
ATOM     20  C   UNL     1      -2.136  -1.787  -0.060  0.00  0.00    +0.081 C 
ENDBRANCH  18  20
BRANCH  18  21
ATOM     21  C   UNL     1      -2.925   0.546  -0.049  0.00  0.00    +0.081 C 
ATOM     22  C   UNL     1      -2.423   1.799   0.660  0.00  0.00    +0.020 C 
ENDBRANCH  18  21
ENDBRANCH  16  18
ENDBRANCH  15  16
ENDBRANCH   1  15
TORSDOF 5
