REMARK  Name = 
REMARK  3 active torsions:
REMARK  status: ('A' for Active; 'I' for Inactive)
REMARK    1  A    between atoms: C_1  and  C_2
REMARK    2  A    between atoms: C_2  and  N_3
REMARK    3  A    between atoms: C_7  and  C_10
REMARK                            x       y       z     vdW  Elec       q    Type
REMARK                         _______ _______ _______ _____ _____    ______ ____
ROOT
ATOM      1  N   UNL     1      -1.777  -0.563  -0.209  0.00  0.00    -0.224 N 
ATOM      2  C   UNL     1      -1.264  -1.448   0.773  0.00  0.00    +0.309 C 
ATOM      3  O   UNL     1      -1.800  -2.550   1.068  0.00  0.00    -0.252 OA
ATOM      4  N   UNL     1      -0.095  -0.954   1.411  0.00  0.00    -0.284 N 
ATOM      5  C   UNL     1       0.191   0.372   0.867  0.00  0.00    +0.191 C 
ATOM      6  C   UNL     1      -0.916   0.568  -0.130  0.00  0.00    +0.248 C 
ATOM      7  O   UNL     1      -1.095   1.622  -0.796  0.00  0.00    -0.273 OA
ATOM      8  H   UNL     1       0.427  -1.427   2.181  0.00  0.00    +0.151 HD
ENDROOT
BRANCH   5   9
ATOM      9  C   UNL     1       1.547   0.403   0.202  0.00  0.00    -0.018 A 
ATOM     10  C   UNL     1       1.907  -0.568  -0.752  0.00  0.00    +0.006 A 
ATOM     11  C   UNL     1       3.160  -0.521  -1.369  0.00  0.00    +0.000 A 
ATOM     12  C   UNL     1       4.064   0.494  -1.044  0.00  0.00    +0.000 A 
ATOM     13  C   UNL     1       3.714   1.466  -0.103  0.00  0.00    +0.000 A 
ATOM     14  C   UNL     1       2.461   1.423   0.517  0.00  0.00    +0.006 A 
ENDBRANCH   5   9
BRANCH   1  16
ATOM     15  C   UNL     1      -4.134   0.009   0.156  0.00  0.00    +0.025 C 
ATOM     16  C   UNL     1      -3.113  -0.598  -0.799  0.00  0.00    +0.114 C 
ENDBRANCH   1  16
TORSDOF 2
