REMARK  Name = 
REMARK  5 active torsions:
REMARK  status: ('A' for Active; 'I' for Inactive)
REMARK    1  A    between atoms: C_1  and  C_2
REMARK    2  A    between atoms: C_2  and  O_3
REMARK    3  A    between atoms: O_3  and  C_4
REMARK    4  A    between atoms: C_11  and  S_13
REMARK    5  A    between atoms: S_13  and  N_14
REMARK                            x       y       z     vdW  Elec       q    Type
REMARK                         _______ _______ _______ _____ _____    ______ ____
ROOT
ATOM      1  C   UNL     1      -1.541   0.511   0.727  0.00  0.00    +0.122 A 
ATOM      2  C   UNL     1      -0.311   0.315   1.380  0.00  0.00    +0.063 A 
ATOM      3  C   UNL     1       0.848   0.244   0.613  0.00  0.00    +0.044 A 
ATOM      4  C   UNL     1       0.826   0.363  -0.766  0.00  0.00    +0.081 A 
ATOM      5  C   UNL     1      -0.380   0.562  -1.436  0.00  0.00    +0.032 A 
ATOM      6  C   UNL     1      -1.567   0.638  -0.687  0.00  0.00    +0.048 A 
ATOM      7  N   UNL     1       2.035   0.272  -1.375  0.00  0.00    -0.221 NA
ATOM      8  C   UNL     1       3.018   0.081  -0.462  0.00  0.00    +0.233 A 
ATOM      9  S   UNL     1       2.430   0.015   1.124  0.00  0.00    -0.047 S 
ENDROOT
BRANCH   8  10
ATOM     10  S   UNL     1       4.708  -0.087  -0.889  0.00  0.00    +0.080 S 
ATOM     11  O   UNL     1       5.521   0.921  -0.127  0.00  0.00    -0.151 OA
ATOM     12  O   UNL     1       4.877   0.156  -2.362  0.00  0.00    -0.151 OA
BRANCH  10  13
ATOM     13  N   UNL     1       5.246  -1.686  -0.510  0.00  0.00    -0.202 NA
ATOM     14  H   UNL     1       6.264  -1.728  -0.739  0.00  0.00    +0.144 HD
ATOM     15  H   UNL     1       5.165  -1.798   0.525  0.00  0.00    +0.144 HD
ENDBRANCH  10  13
ENDBRANCH   8  10
BRANCH   1  16
ATOM     16  O   UNL     1      -2.700   0.582   1.517  0.00  0.00    -0.492 OA
BRANCH  16  18
ATOM     17  C   UNL     1      -4.512  -0.679   0.499  0.00  0.00    +0.048 C 
ATOM     18  C   UNL     1      -4.037   0.672   1.024  0.00  0.00    +0.225 C 
ENDBRANCH  16  18
ENDBRANCH   1  16
TORSDOF 4
