REMARK  Name = 
REMARK  3 active torsions:
REMARK  status: ('A' for Active; 'I' for Inactive)
REMARK    1  A    between atoms: C_1  and  C_2
REMARK    2  A    between atoms: C_2  and  C_3
REMARK    3  A    between atoms: C_3  and  C_4
REMARK                            x       y       z     vdW  Elec       q    Type
REMARK                         _______ _______ _______ _____ _____    ______ ____
ROOT
ATOM      1  C   UNL     1      -0.051   0.262  -0.024  0.00  0.00    +0.053 C 
ATOM      2  C   UNL     1       0.495   1.567   0.588  0.00  0.00    +0.021 C 
ATOM      3  C   UNL     1      -1.191   0.579  -1.048  0.00  0.00    +0.112 C 
ATOM      4  C   UNL     1      -2.384  -0.123  -0.493  0.00  0.00    +0.220 C 
ATOM      5  O   UNL     1      -3.517  -0.124  -1.043  0.00  0.00    -0.275 OA
ATOM      6  N   UNL     1      -2.129  -0.785   0.726  0.00  0.00    -0.256 N 
ATOM      7  C   UNL     1      -0.770  -0.548   1.028  0.00  0.00    +0.226 C 
ATOM      8  O   UNL     1      -0.244  -0.944   2.102  0.00  0.00    -0.275 OA
ATOM      9  H   UNL     1      -2.818  -1.308   1.310  0.00  0.00    +0.157 HD
ENDROOT
BRANCH   1  11
ATOM     10  C   UNL     1       2.259  -0.938   0.158  0.00  0.00    +0.005 C 
ATOM     11  C   UNL     1       1.063  -0.569  -0.725  0.00  0.00    +0.013 C 
ENDBRANCH   1  11
TORSDOF 1
