REMARK  Name = 
REMARK  8 active torsions:
REMARK  status: ('A' for Active; 'I' for Inactive)
REMARK    1  A    between atoms: C_4  and  O_5
REMARK    2  A    between atoms: C_4  and  C_9
REMARK    3  A    between atoms: O_5  and  C_6
REMARK    4  A    between atoms: C_6  and  C_7
REMARK    5  A    between atoms: C_11  and  C_12
REMARK    6  A    between atoms: C_19  and  O_20
REMARK    7  A    between atoms: O_20  and  C_21
REMARK    8  A    between atoms: C_21  and  C_22
REMARK                            x       y       z     vdW  Elec       q    Type
REMARK                         _______ _______ _______ _____ _____    ______ ____
ROOT
ATOM      1  C   UNL     1      -1.610  -0.768  -0.694  0.00  0.00    +0.003 C 
ATOM      2  C   UNL     1      -2.624  -1.291  -1.704  0.00  0.00    +0.009 C 
ATOM      3  C   UNL     1      -3.978  -1.210  -0.972  0.00  0.00    +0.062 C 
ATOM      4  C   UNL     1      -3.730  -0.471   0.373  0.00  0.00    +0.178 C 
ATOM      5  C   UNL     1      -2.381   0.276   0.127  0.00  0.00    +0.022 C 
ATOM      6  C   UNL     1      -2.674   1.595  -0.666  0.00  0.00    +0.016 C 
ATOM      7  C   UNL     1      -1.533   0.620   1.379  0.00  0.00    +0.012 C 
ATOM      8  C   UNL     1      -0.119   1.120   0.994  0.00  0.00    +0.005 C 
ATOM      9  C   UNL     1       0.630   0.158   0.023  0.00  0.00    -0.000 C 
ATOM     10  C   UNL     1       1.986   0.735  -0.491  0.00  0.00    +0.018 C 
ATOM     11  C   UNL     1       2.956   1.229   0.610  0.00  0.00    +0.012 C 
ATOM     12  C   UNL     1       3.674   0.062   1.285  0.00  0.00    +0.049 C 
ATOM     13  C   UNL     1       4.516  -0.706   0.254  0.00  0.00    +0.199 C 
ATOM     14  C   UNL     1       3.715  -1.034  -0.981  0.00  0.00    +0.016 C 
ATOM     15  C   UNL     1       2.632  -0.326  -1.372  0.00  0.00    -0.067 C 
ATOM     16  C   UNL     1       1.825  -0.779  -2.561  0.00  0.00    +0.031 C 
ATOM     17  C   UNL     1       0.466  -1.299  -2.078  0.00  0.00    +0.008 C 
ATOM     18  C   UNL     1      -0.256  -0.241  -1.210  0.00  0.00    -0.003 C 
ENDROOT
BRANCH   4  19
ATOM     19  C   UNL     1      -3.632  -1.458   1.478  0.00  0.00    -0.058 C 
ATOM     20  C   UNL     1      -3.555  -2.261   2.373  0.00  0.00    +0.008 C 
ENDBRANCH   4  19
BRANCH   4  21
ATOM     21  O   UNL     1      -4.785   0.458   0.667  0.00  0.00    -0.445 OA
BRANCH  21  22
ATOM     22  C   UNL     1      -6.136   0.114   0.815  0.00  0.00    +0.305 C 
ATOM     23  C   UNL     1      -7.130   1.177   1.134  0.00  0.00    +0.136 C 
ATOM     24  O   UNL     1      -6.515  -1.085   0.718  0.00  0.00    -0.251 OA
ENDBRANCH  21  22
ENDBRANCH   4  21
BRANCH  13  25
ATOM     25  O   UNL     1       5.655   0.061  -0.138  0.00  0.00    -0.457 OA
BRANCH  25  26
ATOM     26  C   UNL     1       6.785   0.236   0.668  0.00  0.00    +0.305 C 
ATOM     27  C   UNL     1       7.910   1.083   0.179  0.00  0.00    +0.136 C 
ATOM     28  O   UNL     1       6.884  -0.352   1.779  0.00  0.00    -0.251 OA
ENDBRANCH  25  26
ENDBRANCH  13  25
TORSDOF 5
