REMARK  Name = 
REMARK  5 active torsions:
REMARK  status: ('A' for Active; 'I' for Inactive)
REMARK    1  A    between atoms: C_4  and  O_5
REMARK    2  A    between atoms: O_5  and  C_6
REMARK    3  A    between atoms: C_6  and  C_7
REMARK    4  A    between atoms: N_15  and  C_16
REMARK    5  A    between atoms: C_22  and  O_23
REMARK                            x       y       z     vdW  Elec       q    Type
REMARK                         _______ _______ _______ _____ _____    ______ ____
ROOT
ATOM      1  C   UNL     1       0.011  -0.871  -1.915  0.00  0.00    +0.217 C 
ATOM      2  O   UNL     1       1.318  -0.455  -1.493  0.00  0.00    -0.481 OA
ATOM      3  C   UNL     1       1.250   0.182  -0.272  0.00  0.00    +0.167 A 
ATOM      4  C   UNL     1       2.317   0.554   0.545  0.00  0.00    +0.162 A 
ATOM      5  C   UNL     1       2.012   1.003   1.854  0.00  0.00    +0.050 A 
ATOM      6  C   UNL     1       0.679   0.986   2.318  0.00  0.00    +0.008 A 
ATOM      7  C   UNL     1      -0.365   0.603   1.454  0.00  0.00    -0.038 A 
ATOM      8  C   UNL     1      -0.041   0.316   0.133  0.00  0.00    +0.012 A 
ATOM      9  C   UNL     1      -0.988  -0.166  -0.915  0.00  0.00    +0.048 C 
ATOM     10  C   UNL     1      -1.708   1.071  -1.541  0.00  0.00    +0.031 C 
ATOM     11  C   UNL     1      -3.202   1.167  -1.180  0.00  0.00    +0.085 C 
ATOM     12  N   UNL     1      -3.499   0.846   0.238  0.00  0.00    -0.301 NA
ATOM     13  C   UNL     1      -3.756   2.038   1.060  0.00  0.00    +0.105 C 
ATOM     14  C   UNL     1      -2.727  -0.274   0.868  0.00  0.00    +0.068 C 
ATOM     15  C   UNL     1      -1.714   0.183   1.985  0.00  0.00    +0.055 C 
ATOM     16  C   UNL     1      -2.006  -1.113  -0.232  0.00  0.00    +0.043 C 
ATOM     17  C   UNL     1      -1.307  -2.353   0.279  0.00  0.00    -0.023 C 
ATOM     18  C   UNL     1      -0.380  -2.942  -0.492  0.00  0.00    +0.004 C 
ATOM     19  C   UNL     1      -0.103  -2.418  -1.887  0.00  0.00    +0.178 C 
ENDROOT
BRANCH  19  20
ATOM     20  O   UNL     1       1.070  -2.993  -2.400  0.00  0.00    -0.384 OA
ATOM     21  H   UNL     1       0.850  -3.932  -2.637  0.00  0.00    +0.210 HD
ENDBRANCH  19  20
BRANCH   4  22
ATOM     22  O   UNL     1       3.626   0.444   0.059  0.00  0.00    -0.489 OA
BRANCH  22  23
ATOM     23  C   UNL     1       4.790   0.780   0.809  0.00  0.00    +0.226 C 
ATOM     24  C   UNL     1       6.028   0.537  -0.038  0.00  0.00    +0.048 C 
ENDBRANCH  22  23
ENDBRANCH   4  22
TORSDOF 3
