REMARK  Name = 
REMARK  8 active torsions:
REMARK  status: ('A' for Active; 'I' for Inactive)
REMARK    1  A    between atoms: C_1  and  C_2
REMARK    2  A    between atoms: C_2  and  O_3
REMARK    3  A    between atoms: C_2  and  P_4
REMARK    4  A    between atoms: C_2  and  P_8
REMARK    5  A    between atoms: P_4  and  O_5
REMARK    6  A    between atoms: P_4  and  O_6
REMARK    7  A    between atoms: P_8  and  O_9
REMARK    8  A    between atoms: P_8  and  O_10
REMARK                            x       y       z     vdW  Elec       q    Type
REMARK                         _______ _______ _______ _____ _____    ______ ____
ROOT
ATOM      1  C   UNL     1      -0.243  -1.246  -1.474  0.00  0.00    +0.068 C 
ATOM      2  C   UNL     1       0.077  -0.728  -0.070  0.00  0.00    +0.264 C 
ENDROOT
BRANCH   2   3
ATOM      3  O   UNL     1       0.312  -1.832   0.765  0.00  0.00    -0.367 OA
ATOM      4  H   UNL     1       0.487  -1.487   1.679  0.00  0.00    +0.212 HD
ENDBRANCH   2   3
BRANCH   2   5
ATOM      5  P   UNL     1      -1.344   0.242   0.566  0.00  0.00    +0.371 P 
ATOM      6  O   UNL     1      -2.557  -0.655   0.673  0.00  0.00    -0.255 OA
BRANCH   5   7
ATOM      7  O   UNL     1      -1.690   1.534  -0.472  0.00  0.00    -0.322 OA
ATOM      8  H   UNL     1      -2.151   1.126  -1.248  0.00  0.00    +0.220 HD
ENDBRANCH   5   7
BRANCH   5   9
ATOM      9  O   UNL     1      -0.974   0.850   2.102  0.00  0.00    -0.322 OA
ATOM     10  H   UNL     1      -1.741   1.431   2.335  0.00  0.00    +0.220 HD
ENDBRANCH   5   9
ENDBRANCH   2   5
BRANCH   2  11
ATOM     11  P   UNL     1       1.576   0.327  -0.141  0.00  0.00    +0.371 P 
ATOM     12  O   UNL     1       2.750  -0.502  -0.612  0.00  0.00    -0.255 OA
BRANCH  11  13
ATOM     13  O   UNL     1       1.334   1.601  -1.230  0.00  0.00    -0.322 OA
ATOM     14  H   UNL     1       0.936   2.328  -0.688  0.00  0.00    +0.220 HD
ENDBRANCH  11  13
BRANCH  11  15
ATOM     15  O   UNL     1       1.922   0.962   1.391  0.00  0.00    -0.322 OA
ATOM     16  H   UNL     1       2.276   0.198   1.913  0.00  0.00    +0.220 HD
ENDBRANCH  11  15
ENDBRANCH   2  11
TORSDOF 7
