REMARK  Name = 
REMARK  7 active torsions:
REMARK  status: ('A' for Active; 'I' for Inactive)
REMARK    1  A    between atoms: C_1  and  C_2
REMARK    2  A    between atoms: C_2  and  C_3
REMARK    3  A    between atoms: C_11  and  C_12
REMARK    4  A    between atoms: C_11  and  C_14
REMARK    5  A    between atoms: C_12  and  C_13
REMARK    6  A    between atoms: C_14  and  C_15
REMARK    7  A    between atoms: C_15  and  O_16
REMARK                            x       y       z     vdW  Elec       q    Type
REMARK                         _______ _______ _______ _____ _____    ______ ____
ROOT
ATOM      1  C   UNL     1      -2.963  -0.446  -0.721  0.00  0.00    -0.024 A 
ATOM      2  C   UNL     1      -1.606  -0.486  -0.367  0.00  0.00    +0.050 A 
ATOM      3  N   UNL     1      -0.640   0.402  -0.689  0.00  0.00    -0.355 N 
ATOM      4  C   UNL     1       0.492  -0.079  -0.122  0.00  0.00    +0.053 A 
ATOM      5  C   UNL     1       0.242  -1.236   0.575  0.00  0.00    -0.014 A 
ATOM      6  C   UNL     1       1.302  -1.981   1.304  0.00  0.00    +0.065 C 
ATOM      7  C   UNL     1       2.475  -1.017   1.552  0.00  0.00    +0.166 C 
ATOM      8  O   UNL     1       2.865  -0.340   0.360  0.00  0.00    -0.366 OA
ATOM      9  C   UNL     1       1.868   0.559  -0.152  0.00  0.00    +0.119 C 
ATOM     10  C   UNL     1      -1.096  -1.506   0.406  0.00  0.00    +0.004 A 
ATOM     11  C   UNL     1      -1.890  -2.545   0.882  0.00  0.00    +0.010 A 
ATOM     12  C   UNL     1      -3.256  -2.527   0.553  0.00  0.00    +0.001 A 
ATOM     13  C   UNL     1      -3.791  -1.485  -0.236  0.00  0.00    +0.005 A 
ATOM     14  H   UNL     1      -0.737   1.278  -1.248  0.00  0.00    +0.166 HD
ENDROOT
BRANCH   1  16
ATOM     15  C   UNL     1      -3.864   1.879  -0.653  0.00  0.00    +0.009 C 
ATOM     16  C   UNL     1      -3.543   0.679  -1.537  0.00  0.00    +0.034 C 
ENDBRANCH   1  16
BRANCH   9  17
ATOM     17  C   UNL     1       1.823   1.874   0.679  0.00  0.00    +0.038 C 
ATOM     18  C   UNL     1       3.200   2.483   0.954  0.00  0.00    +0.007 C 
ENDBRANCH   9  17
BRANCH   9  19
ATOM     19  C   UNL     1       2.244   0.878  -1.622  0.00  0.00    +0.161 C 
BRANCH  19  20
ATOM     20  C   UNL     1       2.244  -0.349  -2.489  0.00  0.00    +0.308 C 
ATOM     21  O   UNL     1       1.240  -0.619  -3.202  0.00  0.00    -0.251 OA
BRANCH  20  22
ATOM     22  O   UNL     1       3.339  -1.207  -2.477  0.00  0.00    -0.481 OA
ATOM     23  H   UNL     1       3.347  -2.047  -3.043  0.00  0.00    +0.295 HD
ENDBRANCH  20  22
ENDBRANCH  19  20
ENDBRANCH   9  19
TORSDOF 5
