REMARK  Name = 
REMARK  7 active torsions:
REMARK  status: ('A' for Active; 'I' for Inactive)
REMARK    1  A    between atoms: C_1  and  C_2
REMARK    2  A    between atoms: C_2  and  O_3
REMARK    3  A    between atoms: O_3  and  C_4
REMARK    4  A    between atoms: C_4  and  C_6
REMARK    5  A    between atoms: N_10  and  C_11
REMARK    6  A    between atoms: C_11  and  C_12
REMARK    7  A    between atoms: C_11  and  C_13
REMARK                            x       y       z     vdW  Elec       q    Type
REMARK                         _______ _______ _______ _____ _____    ______ ____
ROOT
ATOM      1  C   UNL     1      -1.186  -0.777   0.917  0.00  0.00    +0.147 A 
ATOM      2  C   UNL     1      -1.329  -1.252   2.203  0.00  0.00    +0.145 A 
ATOM      3  N   UNL     1      -0.130  -1.639   2.676  0.00  0.00    -0.243 NA
ATOM      4  C   UNL     1       0.728  -1.383   1.667  0.00  0.00    +0.200 A 
ATOM      5  N   UNL     1       0.126  -0.838   0.585  0.00  0.00    -0.318 N 
ENDROOT
BRANCH   1   6
ATOM      6  C   UNL     1      -2.311  -0.329   0.069  0.00  0.00    +0.357 C 
ATOM      7  O   UNL     1      -2.152  -0.127  -1.165  0.00  0.00    -0.243 OA
BRANCH   6   8
ATOM      8  O   UNL     1      -3.573  -0.163   0.651  0.00  0.00    -0.460 OA
BRANCH   8  10
ATOM      9  C   UNL     1      -4.623   1.810  -0.298  0.00  0.00    +0.048 C 
ATOM     10  C   UNL     1      -4.714   0.306  -0.065  0.00  0.00    +0.229 C 
ENDBRANCH   8  10
ENDBRANCH   6   8
ENDBRANCH   1   6
BRANCH   5  11
ATOM     11  C   UNL     1       0.776  -0.487  -0.690  0.00  0.00    +0.116 C 
ATOM     12  C   UNL     1       0.791  -1.702  -1.626  0.00  0.00    +0.036 C 
BRANCH  11  13
ATOM     13  C   UNL     1       2.155   0.117  -0.457  0.00  0.00    -0.025 A 
ATOM     14  C   UNL     1       2.262   1.500  -0.219  0.00  0.00    +0.005 A 
ATOM     15  C   UNL     1       3.506   2.084   0.037  0.00  0.00    +0.000 A 
ATOM     16  C   UNL     1       4.657   1.295   0.073  0.00  0.00    +0.000 A 
ATOM     17  C   UNL     1       4.564  -0.082  -0.139  0.00  0.00    +0.000 A 
ATOM     18  C   UNL     1       3.323  -0.672  -0.396  0.00  0.00    +0.005 A 
ENDBRANCH  11  13
ENDBRANCH   5  11
TORSDOF 5
