REMARK  Name = 
REMARK  4 active torsions:
REMARK  status: ('A' for Active; 'I' for Inactive)
REMARK    1  A    between atoms: C_4  and  O_5
REMARK    2  A    between atoms: C_4  and  C_6
REMARK    3  A    between atoms: C_8  and  C_9
REMARK    4  A    between atoms: C_9  and  C_10
REMARK                            x       y       z     vdW  Elec       q    Type
REMARK                         _______ _______ _______ _____ _____    ______ ____
ROOT
ATOM      1  C   UNL     1      -1.141  -1.172  -0.013  0.00  0.00    +0.003 C 
ATOM      2  C   UNL     1      -1.989  -2.236  -0.694  0.00  0.00    +0.008 C 
ATOM      3  C   UNL     1      -3.416  -1.961  -0.193  0.00  0.00    +0.049 C 
ATOM      4  C   UNL     1      -3.384  -0.611   0.583  0.00  0.00    +0.132 C 
ATOM      5  C   UNL     1      -2.061   0.072   0.084  0.00  0.00    +0.017 C 
ATOM      6  C   UNL     1      -1.368   1.074   1.055  0.00  0.00    +0.041 C 
ATOM      7  C   UNL     1       0.030   1.378   0.533  0.00  0.00    -0.072 C 
ATOM      8  C   UNL     1       0.330   2.633   0.148  0.00  0.00    +0.008 C 
ATOM      9  C   UNL     1       0.968   0.168   0.352  0.00  0.00    +0.025 C 
ATOM     10  C   UNL     1       2.432   0.487  -0.091  0.00  0.00    +0.023 C 
ATOM     11  C   UNL     1       3.190   1.225   1.045  0.00  0.00    +0.016 C 
ATOM     12  C   UNL     1       4.623   1.553   0.624  0.00  0.00    +0.079 C 
ATOM     13  C   UNL     1       5.319   0.315   0.149  0.00  0.00    +0.156 C 
ATOM     14  O   UNL     1       6.576   0.248   0.192  0.00  0.00    -0.293 OA
ATOM     15  C   UNL     1       4.548  -0.802  -0.420  0.00  0.00    +0.045 C 
ATOM     16  C   UNL     1       3.204  -0.774  -0.485  0.00  0.00    -0.063 C 
ATOM     17  C   UNL     1       2.498  -1.890  -1.212  0.00  0.00    +0.031 C 
ATOM     18  C   UNL     1       1.124  -2.168  -0.611  0.00  0.00    +0.009 C 
ATOM     19  C   UNL     1       0.280  -0.883  -0.572  0.00  0.00    +0.001 C 
ENDROOT
BRANCH   4  20
ATOM     20  O   UNL     1      -4.523   0.157   0.285  0.00  0.00    -0.376 OA
ATOM     21  H   UNL     1      -5.325  -0.388   0.502  0.00  0.00    +0.211 HD
ENDBRANCH   4  20
BRANCH   4  22
ATOM     22  C   UNL     1      -3.363  -0.876   2.043  0.00  0.00    -0.070 C 
ATOM     23  C   UNL     1      -3.348  -1.093   3.229  0.00  0.00    +0.007 C 
ENDBRANCH   4  22
BRANCH   5  24
ATOM     24  C   UNL     1      -2.299   0.748  -1.331  0.00  0.00    +0.008 C 
ATOM     25  C   UNL     1      -2.961   2.137  -1.315  0.00  0.00    +0.004 C 
ENDBRANCH   5  24
TORSDOF 3
