REMARK  Name = 
REMARK  11 active torsions:
REMARK  status: ('A' for Active; 'I' for Inactive)
REMARK    1  A    between atoms: C_7  and  C_8
REMARK    2  A    between atoms: C_10  and  O_11
REMARK    3  A    between atoms: O_11  and  C_12
REMARK    4  A    between atoms: C_13  and  O_14
REMARK    5  A    between atoms: C_15  and  O_16
REMARK    6  A    between atoms: O_16  and  C_17
REMARK    7  A    between atoms: C_28  and  O_29
REMARK    8  A    between atoms: O_29  and  C_30
REMARK    9  A    between atoms: C_35  and  C_36
REMARK   10  A    between atoms: C_39  and  O_40
REMARK   11  A    between atoms: C_41  and  O_42
REMARK                            x       y       z     vdW  Elec       q    Type
REMARK                         _______ _______ _______ _____ _____    ______ ____
ROOT
ATOM      1  C   UNL     1      -0.373  -0.644  -0.681  0.00  0.00    +0.075 C 
ATOM      2  C   UNL     1       0.460  -1.752  -1.342  0.00  0.00    +0.239 C 
ATOM      3  O   UNL     1      -0.221  -2.945  -0.965  0.00  0.00    -0.464 OA
ATOM      4  C   UNL     1      -1.052  -2.714   0.119  0.00  0.00    +0.312 C 
ATOM      5  O   UNL     1      -1.592  -3.639   0.778  0.00  0.00    -0.250 OA
ATOM      6  C   UNL     1      -0.965  -1.302   0.562  0.00  0.00    +0.118 C 
ATOM      7  C   UNL     1      -2.222  -0.542   1.030  0.00  0.00    +0.064 C 
ATOM      8  C   UNL     1      -1.933   0.961   1.063  0.00  0.00    -0.030 A 
ATOM      9  C   UNL     1      -2.851   1.800   1.732  0.00  0.00    +0.054 A 
ATOM     10  C   UNL     1      -2.611   3.168   1.741  0.00  0.00    +0.167 A 
ATOM     11  C   UNL     1      -1.537   3.717   1.124  0.00  0.00    +0.167 A 
ATOM     12  O   UNL     1      -1.547   5.087   1.311  0.00  0.00    -0.453 OA
ATOM     13  C   UNL     1      -2.694   5.417   2.107  0.00  0.00    +0.466 C 
ATOM     14  O   UNL     1      -3.355   4.164   2.343  0.00  0.00    -0.453 OA
ATOM     15  C   UNL     1      -0.611   2.947   0.432  0.00  0.00    +0.056 A 
ATOM     16  C   UNL     1      -0.790   1.546   0.395  0.00  0.00    -0.011 A 
ATOM     17  C   UNL     1       0.275   0.695  -0.290  0.00  0.00    +0.159 C 
ENDROOT
BRANCH   7  18
ATOM     18  C   UNL     1      -3.470  -0.874   0.216  0.00  0.00    -0.032 A 
ATOM     19  C   UNL     1      -4.279  -1.949   0.612  0.00  0.00    +0.054 A 
ATOM     20  C   UNL     1      -5.441  -2.283  -0.107  0.00  0.00    +0.165 A 
ATOM     21  C   UNL     1      -5.788  -1.547  -1.247  0.00  0.00    +0.201 A 
ATOM     22  C   UNL     1      -4.940  -0.516  -1.702  0.00  0.00    +0.165 A 
ATOM     23  C   UNL     1      -3.819  -0.160  -0.946  0.00  0.00    +0.054 A 
BRANCH  20  24
ATOM     24  O   UNL     1      -6.285  -3.332   0.289  0.00  0.00    -0.491 OA
ATOM     25  C   UNL     1      -6.084  -4.130   1.455  0.00  0.00    +0.277 C 
ENDBRANCH  20  24
BRANCH  21  26
ATOM     26  O   UNL     1      -6.998  -1.832  -1.877  0.00  0.00    -0.501 OA
ATOM     27  H   UNL     1      -7.429  -1.201  -2.537  0.00  0.00    +0.292 HD
ENDBRANCH  21  26
BRANCH  22  28
ATOM     28  O   UNL     1      -5.163   0.170  -2.901  0.00  0.00    -0.491 OA
ATOM     29  C   UNL     1      -5.290  -0.488  -4.159  0.00  0.00    +0.277 C 
ENDBRANCH  22  28
ENDBRANCH   7  18
BRANCH  17  30
ATOM     30  O   UNL     1       1.338   0.495   0.641  0.00  0.00    -0.340 OA
BRANCH  30  31
ATOM     31  C   UNL     1       2.635   0.734   0.112  0.00  0.00    +0.282 C 
ATOM     32  O   UNL     1       3.319  -0.513   0.077  0.00  0.00    -0.340 OA
ATOM     33  C   UNL     1       4.627  -0.345  -0.434  0.00  0.00    +0.178 C 
ATOM     34  C   UNL     1       5.318  -1.698  -0.676  0.00  0.00    +0.197 C 
ATOM     35  O   UNL     1       6.416  -1.899   0.201  0.00  0.00    -0.349 OA
ATOM     36  C   UNL     1       7.362  -0.824   0.147  0.00  0.00    +0.248 C 
ATOM     37  C   UNL     1       8.320  -1.000  -1.030  0.00  0.00    +0.070 C 
ATOM     38  O   UNL     1       6.790   0.484   0.110  0.00  0.00    -0.343 OA
ATOM     39  C   UNL     1       5.460   0.448   0.568  0.00  0.00    +0.183 C 
ATOM     40  C   UNL     1       4.861   1.855   0.679  0.00  0.00    +0.179 C 
ATOM     41  C   UNL     1       3.364   1.731   1.055  0.00  0.00    +0.201 C 
BRANCH  40  42
ATOM     42  O   UNL     1       5.560   2.626   1.627  0.00  0.00    -0.386 OA
ATOM     43  H   UNL     1       5.468   2.178   2.508  0.00  0.00    +0.210 HD
ENDBRANCH  40  42
BRANCH  41  44
ATOM     44  O   UNL     1       2.767   2.998   0.974  0.00  0.00    -0.384 OA
ATOM     45  H   UNL     1       1.998   2.991   1.607  0.00  0.00    +0.210 HD
ENDBRANCH  41  44
ENDBRANCH  30  31
ENDBRANCH  17  30
TORSDOF 8
