REMARK  Name = 
REMARK  5 active torsions:
REMARK  status: ('A' for Active; 'I' for Inactive)
REMARK    1  A    between atoms: C_1  and  C_2
REMARK    2  A    between atoms: C_5  and  C_8
REMARK    3  A    between atoms: C_9  and  C_15
REMARK    4  A    between atoms: C_18  and  S_21
REMARK    5  A    between atoms: S_21  and  C_22
REMARK                            x       y       z     vdW  Elec       q    Type
REMARK                         _______ _______ _______ _____ _____    ______ ____
ROOT
ATOM      1  C   UNL     1      -1.591  -1.950  -0.155  0.00  0.00    +0.080 A 
ATOM      2  C   UNL     1      -0.205  -2.127  -0.401  0.00  0.00    +0.010 A 
ATOM      3  C   UNL     1       0.269  -3.421  -0.665  0.00  0.00    +0.032 A 
ATOM      4  C   UNL     1      -0.605  -4.509  -0.654  0.00  0.00    +0.060 A 
ATOM      5 CL   UNL     1      -0.009  -6.128  -0.968  0.00  0.00    -0.082 Cl
ATOM      6  C   UNL     1      -1.954  -4.297  -0.375  0.00  0.00    +0.131 A 
ATOM      7  N   UNL     1      -2.409  -3.040  -0.139  0.00  0.00    -0.253 NA
ENDROOT
BRANCH   1  12
ATOM      8  C   UNL     1      -3.999   3.227   0.622  0.00  0.00    +0.065 C 
ATOM      9  C   UNL     1      -3.373   1.881   0.441  0.00  0.00    +0.038 A 
ATOM     10  N   UNL     1      -2.531   1.660  -0.605  0.00  0.00    -0.260 NA
ATOM     11  C   UNL     1      -1.949   0.450  -0.815  0.00  0.00    +0.121 A 
ATOM     12  C   UNL     1      -2.203  -0.619   0.060  0.00  0.00    +0.019 A 
ATOM     13  C   UNL     1      -3.092  -0.417   1.124  0.00  0.00    +0.013 A 
ATOM     14  C   UNL     1      -3.676   0.835   1.321  0.00  0.00    +0.024 A 
ENDBRANCH   1  12
BRANCH   2  15
ATOM     15  C   UNL     1       0.767  -1.009  -0.327  0.00  0.00    -0.016 A 
ATOM     16  C   UNL     1       0.834  -0.195   0.816  0.00  0.00    +0.010 A 
ATOM     17  C   UNL     1       1.748   0.860   0.880  0.00  0.00    +0.027 A 
ATOM     18  C   UNL     1       2.610   1.111  -0.195  0.00  0.00    +0.088 A 
ATOM     19  C   UNL     1       2.562   0.288  -1.328  0.00  0.00    +0.027 A 
ATOM     20  C   UNL     1       1.648  -0.766  -1.394  0.00  0.00    +0.010 A 
BRANCH  18  21
ATOM     21  S   UNL     1       3.771   2.431  -0.108  0.00  0.00    -0.006 S 
ATOM     22  C   UNL     1       5.285   1.839   0.614  0.00  0.00    +0.200 C 
ATOM     23  O   UNL     1       4.046   2.961  -1.487  0.00  0.00    -0.170 OA
ATOM     24  O   UNL     1       3.214   3.545   0.734  0.00  0.00    -0.170 OA
ENDBRANCH  18  21
ENDBRANCH   2  15
TORSDOF 3
