REMARK  Name = 
REMARK  22 active torsions:
REMARK  status: ('A' for Active; 'I' for Inactive)
REMARK    1  A    between atoms: C_1  and  O_2
REMARK    2  A    between atoms: O_2  and  C_3
REMARK    3  A    between atoms: C_5  and  C_6
REMARK    4  A    between atoms: C_6  and  C_7
REMARK    5  A    between atoms: C_7  and  C_8
REMARK    6  A    between atoms: C_7  and  C_9
REMARK    7  A    between atoms: C_13  and  C_14
REMARK    8  A    between atoms: C_16  and  C_17
REMARK    9  A    between atoms: C_18  and  O_19
REMARK   10  A    between atoms: C_20  and  O_21
REMARK   11  A    between atoms: O_21  and  C_22
REMARK   12  A    between atoms: C_25  and  C_26
REMARK   13  A    between atoms: C_28  and  C_29
REMARK   14  A    between atoms: C_35  and  C_36
REMARK   15  A    between atoms: C_37  and  O_60
REMARK   16  A    between atoms: C_42  and  C_43
REMARK   17  A    between atoms: C_44  and  O_45
REMARK   18  A    between atoms: O_60  and  C_61
REMARK   19  A    between atoms: C_64  and  O_65
REMARK   20  A    between atoms: O_65  and  C_66
REMARK   21  A    between atoms: C_66  and  C_67
REMARK   22  A    between atoms: C_67  and  O_68
REMARK                            x       y       z     vdW  Elec       q    Type
REMARK                         _______ _______ _______ _____ _____    ______ ____
ROOT
ATOM      1  C   UNL     1       2.662  -0.466  -0.676  0.00  0.00    +0.186 C 
ATOM      2  C   UNL     1       2.194  -1.787  -0.148  0.00  0.00    +0.119 C 
ATOM      3  C   UNL     1       2.237  -2.001   1.333  0.00  0.00    +0.143 C 
ATOM      4  O   UNL     1       2.311  -1.059   2.104  0.00  0.00    -0.297 OA
ATOM      5  C   UNL     1       2.060  -3.401   1.851  0.00  0.00    +0.075 C 
ATOM      6  C   UNL     1       3.392  -4.128   1.668  0.00  0.00    +0.020 C 
ATOM      7  C   UNL     1       0.841  -3.988   1.172  0.00  0.00    -0.015 C 
ATOM      8  C   UNL     1       0.746  -4.946   0.217  0.00  0.00    -0.045 C 
ATOM      9  C   UNL     1       1.788  -5.971  -0.153  0.00  0.00    +0.041 C 
ATOM     10  C   UNL     1      -0.549  -4.971  -0.589  0.00  0.00    +0.176 C 
ATOM     11  C   UNL     1      -1.439  -6.194  -0.228  0.00  0.00    +0.216 C 
ATOM     12  C   UNL     1      -2.561  -6.350  -1.316  0.00  0.00    +0.167 C 
ATOM     13  O   UNL     1      -2.233  -6.604  -2.468  0.00  0.00    -0.294 OA
ATOM     14  C   UNL     1      -4.045  -6.237  -1.089  0.00  0.00    +0.055 C 
ATOM     15  C   UNL     1      -4.571  -7.285  -0.098  0.00  0.00    +0.015 C 
ATOM     16  C   UNL     1      -4.533  -4.792  -0.815  0.00  0.00    +0.018 C 
ATOM     17  C   UNL     1      -5.998  -4.450  -1.278  0.00  0.00    +0.009 C 
ATOM     18  C   UNL     1      -7.069  -5.286  -0.551  0.00  0.00    +0.012 C 
ATOM     19  C   UNL     1      -6.206  -2.927  -1.174  0.00  0.00    -0.024 C 
ATOM     20  C   UNL     1      -7.306  -2.251  -0.731  0.00  0.00    -0.004 C 
ATOM     21  C   UNL     1      -7.180  -0.788  -0.603  0.00  0.00    -0.000 C 
ATOM     22  C   UNL     1      -8.076  -0.081   0.134  0.00  0.00    +0.000 C 
ATOM     23  C   UNL     1      -7.586   1.153   0.667  0.00  0.00    +0.001 C 
ATOM     24  C   UNL     1      -8.357   2.273   0.674  0.00  0.00    -0.044 C 
ATOM     25  C   UNL     1      -9.854   2.216   0.773  0.00  0.00    +0.042 C 
ATOM     26  C   UNL     1      -7.763   3.603   0.209  0.00  0.00    +0.146 C 
ATOM     27  C   UNL     1      -6.284   3.463  -0.178  0.00  0.00    +0.067 C 
ATOM     28  C   UNL     1      -5.610   4.643  -0.863  0.00  0.00    +0.125 C 
ATOM     29  C   UNL     1      -5.661   5.865   0.073  0.00  0.00    +0.032 C 
ATOM     30  C   UNL     1      -4.562   6.889  -0.134  0.00  0.00    +0.011 C 
ATOM     31  C   UNL     1      -3.232   6.215  -0.398  0.00  0.00    +0.054 C 
ATOM     32  C   UNL     1      -2.171   7.294  -0.726  0.00  0.00    +0.013 C 
ATOM     33  C   UNL     1      -3.382   5.183  -1.562  0.00  0.00    +0.240 C 
ATOM     34  O   UNL     1      -4.320   4.196  -1.182  0.00  0.00    -0.339 OA
ATOM     35  C   UNL     1      -2.093   4.375  -1.692  0.00  0.00    +0.276 C 
ATOM     36  O   UNL     1      -1.467   4.293  -2.769  0.00  0.00    -0.281 OA
ATOM     37  C   UNL     1      -1.709   3.569  -0.498  0.00  0.00    +0.288 C 
ATOM     38  O   UNL     1      -2.551   3.388   0.426  0.00  0.00    -0.267 OA
ATOM     39  N   UNL     1      -0.288   3.337  -0.305  0.00  0.00    -0.282 N 
ATOM     40  C   UNL     1       0.645   4.468  -0.509  0.00  0.00    +0.109 C 
ATOM     41  C   UNL     1       2.001   4.174   0.160  0.00  0.00    +0.019 C 
ATOM     42  C   UNL     1       1.857   3.514   1.563  0.00  0.00    +0.004 C 
ATOM     43  C   UNL     1       0.753   2.462   1.718  0.00  0.00    +0.034 C 
ATOM     44  C   UNL     1       0.119   2.092   0.396  0.00  0.00    +0.185 C 
ATOM     45  C   UNL     1       1.020   1.364  -0.513  0.00  0.00    +0.328 C 
ATOM     46  O   UNL     1       1.048   1.651  -1.742  0.00  0.00    -0.249 OA
ATOM     47  O   UNL     1       1.996   0.560   0.046  0.00  0.00    -0.459 OA
ENDROOT
BRANCH   1  48
ATOM     48  C   UNL     1       4.166  -0.218  -0.743  0.00  0.00    +0.027 C 
ATOM     49  C   UNL     1       4.405   1.031  -1.606  0.00  0.00    +0.011 C 
BRANCH  48  50
ATOM     50  C   UNL     1       4.786  -0.071   0.654  0.00  0.00    +0.010 C 
BRANCH  50  53
ATOM     51  C   UNL     1       8.601  -0.626   0.408  0.00  0.00    +0.147 C 
ATOM     52  C   UNL     1       7.155  -0.776  -0.066  0.00  0.00    +0.037 C 
ATOM     53  C   UNL     1       6.296   0.221   0.742  0.00  0.00    -0.008 C 
ATOM     54  C   UNL     1       6.722   1.674   0.453  0.00  0.00    +0.006 C 
ATOM     55  C   UNL     1       8.219   1.852   0.791  0.00  0.00    +0.034 C 
ATOM     56  C   UNL     1       9.071   0.801   0.045  0.00  0.00    +0.147 C 
BRANCH  51  58
ATOM     57  C   UNL     1       9.976  -2.452   0.697  0.00  0.00    +0.194 C 
ATOM     58  O   UNL     1       9.407  -1.584  -0.260  0.00  0.00    -0.377 OA
ENDBRANCH  51  58
BRANCH  56  59
ATOM     59  O   UNL     1      10.430   0.945   0.419  0.00  0.00    -0.372 OA
BRANCH  59  60
ATOM     60  C   UNL     1      11.237   1.091  -0.738  0.00  0.00    +0.188 C 
BRANCH  60  61
ATOM     61  C   UNL     1      12.690   1.072  -0.295  0.00  0.00    +0.184 C 
BRANCH  61  62
ATOM     62  O   UNL     1      12.948  -0.158   0.347  0.00  0.00    -0.393 OA
ATOM     63  H   UNL     1      13.714  -0.564  -0.140  0.00  0.00    +0.209 HD
ENDBRANCH  61  62
ENDBRANCH  60  61
ENDBRANCH  59  60
ENDBRANCH  56  59
ENDBRANCH  50  53
ENDBRANCH  48  50
ENDBRANCH   1  48
BRANCH  10  64
ATOM     64  O   UNL     1      -0.187  -4.997  -1.954  0.00  0.00    -0.384 OA
ATOM     65  H   UNL     1       0.097  -4.072  -2.206  0.00  0.00    +0.210 HD
ENDBRANCH  10  64
BRANCH  11  66
ATOM     66  O   UNL     1      -1.924  -6.102   1.135  0.00  0.00    -0.369 OA
ATOM     67  C   UNL     1      -1.292  -7.101   1.919  0.00  0.00    +0.195 C 
ENDBRANCH  11  66
BRANCH  33  68
ATOM     68  O   UNL     1      -3.901   5.868  -2.720  0.00  0.00    -0.358 OA
ATOM     69  H   UNL     1      -3.264   5.721  -3.473  0.00  0.00    +0.213 HD
ENDBRANCH  33  68
BRANCH  26  70
ATOM     70  O   UNL     1      -7.943   4.580   1.238  0.00  0.00    -0.375 OA
ATOM     71  C   UNL     1      -8.974   5.484   0.890  0.00  0.00    +0.194 C 
ENDBRANCH  26  70
TORSDOF 12
