REMARK  Name = 
REMARK  2 active torsions:
REMARK  status: ('A' for Active; 'I' for Inactive)
REMARK    1  A    between atoms: C_6  and  C_7
REMARK    2  A    between atoms: C_21  and  C_22
REMARK                            x       y       z     vdW  Elec       q    Type
REMARK                         _______ _______ _______ _____ _____    ______ ____
ROOT
ATOM      1  C   UNL     1       1.891  -0.039  -0.268  0.00  0.00    +0.006 C 
ATOM      2  C   UNL     1       2.867   0.130  -1.435  0.00  0.00    +0.012 C 
ATOM      3  C   UNL     1       4.170  -0.487  -0.898  0.00  0.00    +0.075 C 
ATOM      4  C   UNL     1       3.712  -1.380   0.214  0.00  0.00    +0.139 C 
ATOM      5  O   UNL     1       4.469  -2.056   0.893  0.00  0.00    -0.297 OA
ATOM      6  C   UNL     1       2.225  -1.405   0.341  0.00  0.00    +0.029 C 
ATOM      7  C   UNL     1       1.720  -2.631  -0.471  0.00  0.00    +0.019 C 
ATOM      8  C   UNL     1       1.665  -1.420   1.774  0.00  0.00    +0.015 C 
ATOM      9  C   UNL     1       0.133  -1.183   1.766  0.00  0.00    +0.006 C 
ATOM     10  C   UNL     1      -0.325   0.064   0.926  0.00  0.00    +0.007 C 
ATOM     11  C   UNL     1       0.378   0.142  -0.480  0.00  0.00    +0.002 C 
ATOM     12  C   UNL     1       0.083   1.489  -1.169  0.00  0.00    +0.039 C 
ATOM     13  C   UNL     1      -1.395   1.763  -1.212  0.00  0.00    -0.050 C 
ATOM     14  C   UNL     1      -1.962   2.257  -2.320  0.00  0.00    +0.012 C 
ATOM     15  C   UNL     1      -2.178   1.518   0.024  0.00  0.00    -0.031 C 
ATOM     16  C   UNL     1      -3.095   2.416   0.428  0.00  0.00    +0.055 C 
ATOM     17  C   UNL     1      -3.794   2.252   1.702  0.00  0.00    +0.179 C 
ATOM     18  O   UNL     1      -4.685   3.072   2.046  0.00  0.00    -0.288 OA
ATOM     19  C   UNL     1      -3.426   1.151   2.587  0.00  0.00    +0.047 C 
ATOM     20  C   UNL     1      -2.518   0.251   2.207  0.00  0.00    -0.012 C 
ATOM     21  C   UNL     1      -1.890   0.230   0.812  0.00  0.00    +0.015 C 
ATOM     22  C   UNL     1      -2.557  -0.937   0.046  0.00  0.00    +0.021 C 
ENDROOT
TORSDOF 0
