REMARK  Name = 
REMARK  8 active torsions:
REMARK  status: ('A' for Active; 'I' for Inactive)
REMARK    1  A    between atoms: O_1  and  C_2
REMARK    2  A    between atoms: C_2  and  C_3
REMARK    3  A    between atoms: C_2  and  C_24
REMARK    4  A    between atoms: C_3  and  C_4
REMARK    5  A    between atoms: C_4  and  C_5
REMARK    6  A    between atoms: C_6  and  C_17
REMARK    7  A    between atoms: N_7  and  C_10
REMARK    8  A    between atoms: C_20  and  O_21
REMARK                            x       y       z     vdW  Elec       q    Type
REMARK                         _______ _______ _______ _____ _____    ______ ____
ROOT
ATOM      1  C   UNL     1      -0.057   0.004  -0.328  0.00  0.00    +0.101 C 
ATOM      2  C   UNL     1      -1.437  -0.212  -0.717  0.00  0.00    +0.123 C 
ATOM      3  N   UNL     1      -1.851   1.114  -0.294  0.00  0.00    -0.263 N 
ATOM      4  C   UNL     1      -0.449   1.386   0.108  0.00  0.00    +0.226 C 
ATOM      5  O   UNL     1       0.157   2.364   0.619  0.00  0.00    -0.275 OA
ENDROOT
BRANCH   3   6
ATOM      6  C   UNL     1      -3.079   1.850  -0.289  0.00  0.00    +0.037 A 
ATOM      7  C   UNL     1      -4.247   1.277  -0.816  0.00  0.00    +0.026 A 
ATOM      8  C   UNL     1      -5.448   1.994  -0.805  0.00  0.00    +0.040 A 
ATOM      9  C   UNL     1      -5.489   3.285  -0.271  0.00  0.00    +0.124 A 
ATOM     10  F   UNL     1      -6.654   3.978  -0.262  0.00  0.00    -0.205 F 
ATOM     11  C   UNL     1      -4.328   3.861   0.253  0.00  0.00    +0.040 A 
ATOM     12  C   UNL     1      -3.126   3.146   0.245  0.00  0.00    +0.026 A 
ENDBRANCH   3   6
BRANCH   2  13
ATOM     13  C   UNL     1      -2.132  -1.310   0.068  0.00  0.00    -0.026 A 
ATOM     14  C   UNL     1      -2.428  -1.162   1.438  0.00  0.00    +0.009 A 
ATOM     15  C   UNL     1      -3.053  -2.196   2.140  0.00  0.00    +0.046 A 
ATOM     16  C   UNL     1      -3.380  -3.391   1.492  0.00  0.00    +0.117 A 
ATOM     17  C   UNL     1      -3.077  -3.550   0.134  0.00  0.00    +0.046 A 
ATOM     18  C   UNL     1      -2.452  -2.518  -0.572  0.00  0.00    +0.009 A 
BRANCH  16  19
ATOM     19  O   UNL     1      -4.003  -4.412   2.205  0.00  0.00    -0.507 OA
ATOM     20  H   UNL     1      -4.253  -5.290   1.765  0.00  0.00    +0.292 HD
ENDBRANCH  16  19
ENDBRANCH   2  13
BRANCH   1  21
ATOM     21  C   UNL     1       0.930  -0.002  -1.513  0.00  0.00    +0.018 C 
BRANCH  21  22
ATOM     22  C   UNL     1       2.351   0.463  -1.143  0.00  0.00    +0.037 C 
BRANCH  22  23
ATOM     23  C   UNL     1       3.118  -0.534  -0.239  0.00  0.00    +0.145 C 
BRANCH  23  24
ATOM     24  C   UNL     1       4.613  -0.280  -0.285  0.00  0.00    -0.019 A 
ATOM     25  C   UNL     1       5.147   0.959   0.118  0.00  0.00    +0.009 A 
ATOM     26  C   UNL     1       6.527   1.182   0.075  0.00  0.00    +0.039 A 
ATOM     27  C   UNL     1       7.387   0.174  -0.368  0.00  0.00    +0.123 A 
ATOM     28  F   UNL     1       8.724   0.393  -0.409  0.00  0.00    -0.205 F 
ATOM     29  C   UNL     1       6.868  -1.059  -0.769  0.00  0.00    +0.039 A 
ATOM     30  C   UNL     1       5.489  -1.288  -0.728  0.00  0.00    +0.009 A 
ENDBRANCH  23  24
BRANCH  23  31
ATOM     31  O   UNL     1       2.665  -0.494   1.092  0.00  0.00    -0.387 OA
ATOM     32  H   UNL     1       2.714   0.446   1.407  0.00  0.00    +0.210 HD
ENDBRANCH  23  31
ENDBRANCH  22  23
ENDBRANCH  21  22
ENDBRANCH   1  21
TORSDOF 8
