REMARK  Name = 
REMARK  8 active torsions:
REMARK  status: ('A' for Active; 'I' for Inactive)
REMARK    1  A    between atoms: C_1  and  C_2
REMARK    2  A    between atoms: C_2  and  O_3
REMARK    3  A    between atoms: O_3  and  C_4
REMARK    4  A    between atoms: N_6  and  C_7
REMARK    5  A    between atoms: C_8  and  N_9
REMARK    6  A    between atoms: C_11  and  N_12
REMARK    7  A    between atoms: N_12  and  C_13
REMARK    8  A    between atoms: C_13  and  C_14
REMARK                            x       y       z     vdW  Elec       q    Type
REMARK                         _______ _______ _______ _____ _____    ______ ____
ROOT
ATOM      1  C   UNL     1       1.330  -1.194   0.023  0.00  0.00    +0.057 A 
ATOM      2  C   UNL     1       0.830  -1.938   1.113  0.00  0.00    +0.048 A 
ATOM      3  C   UNL     1      -0.548  -2.191   1.206  0.00  0.00    +0.047 A 
ATOM      4  C   UNL     1      -1.439  -1.710   0.235  0.00  0.00    +0.029 A 
ATOM      5  C   UNL     1      -0.931  -0.979  -0.852  0.00  0.00    +0.025 A 
ATOM      6  C   UNL     1       0.438  -0.728  -0.956  0.00  0.00    +0.027 A 
ENDROOT
BRANCH   1   9
ATOM      7  C   UNL     1       3.305   0.287  -0.521  0.00  0.00    +0.405 C 
ATOM      8  O   UNL     1       2.579   1.316  -0.601  0.00  0.00    -0.226 OA
ATOM      9  N   UNL     1       2.743  -0.971  -0.129  0.00  0.00    -0.249 N 
ATOM     10  H   UNL     1       3.402  -1.755   0.072  0.00  0.00    +0.158 HD
BRANCH   7  11
ATOM     11  O   UNL     1       4.675   0.368  -0.785  0.00  0.00    -0.450 OA
BRANCH  11  13
ATOM     12  C   UNL     1       6.798   1.332  -1.383  0.00  0.00    +0.048 C 
ATOM     13  C   UNL     1       5.313   1.582  -1.169  0.00  0.00    +0.230 C 
ENDBRANCH  11  13
ENDBRANCH   7  11
ENDBRANCH   1   9
BRANCH   2  14
ATOM     14  N   UNL     1       1.697  -2.413   2.152  0.00  0.00    -0.356 N 
ATOM     15  H   UNL     1       1.320  -2.998   2.930  0.00  0.00    +0.142 HD
ATOM     16  H   UNL     1       2.704  -2.147   2.197  0.00  0.00    +0.142 HD
ENDBRANCH   2  14
BRANCH   4  17
ATOM     17  N   UNL     1      -2.847  -1.985   0.377  0.00  0.00    -0.340 N 
ATOM     18  H   UNL     1      -3.154  -2.632   1.139  0.00  0.00    +0.146 HD
BRANCH  17  19
ATOM     19  C   UNL     1      -3.897  -1.368  -0.435  0.00  0.00    +0.137 C 
BRANCH  19  20
ATOM     20  C   UNL     1      -4.007   0.104  -0.134  0.00  0.00    -0.030 A 
ATOM     21  C   UNL     1      -4.247   0.538   1.181  0.00  0.00    +0.008 A 
ATOM     22  C   UNL     1      -4.354   1.903   1.464  0.00  0.00    +0.038 A 
ATOM     23  C   UNL     1      -4.230   2.844   0.437  0.00  0.00    +0.123 A 
ATOM     24  F   UNL     1      -4.334   4.167   0.713  0.00  0.00    -0.205 F 
ATOM     25  C   UNL     1      -4.003   2.419  -0.875  0.00  0.00    +0.038 A 
ATOM     26  C   UNL     1      -3.896   1.055  -1.162  0.00  0.00    +0.008 A 
ENDBRANCH  19  20
ENDBRANCH  17  19
ENDBRANCH   4  17
TORSDOF 7
