REMARK  Name = 
REMARK  11 active torsions:
REMARK  status: ('A' for Active; 'I' for Inactive)
REMARK    1  A    between atoms: C_1  and  C_2
REMARK    2  A    between atoms: C_2  and  O_4
REMARK    3  A    between atoms: O_4  and  C_5
REMARK    4  A    between atoms: C_5  and  C_6
REMARK    5  A    between atoms: C_6  and  C_7
REMARK    6  A    between atoms: C_6  and  C_19
REMARK    7  A    between atoms: C_7  and  C_8
REMARK    8  A    between atoms: C_8  and  N_9
REMARK    9  A    between atoms: C_19  and  O_20
REMARK   10  A    between atoms: O_20  and  C_21
REMARK   11  A    between atoms: C_21  and  C_22
REMARK                            x       y       z     vdW  Elec       q    Type
REMARK                         _______ _______ _______ _____ _____    ______ ____
ROOT
ATOM      1  C   UNL     1       1.611   1.694  -1.284  0.00  0.00    +0.125 C 
ENDROOT
BRANCH   1   2
ATOM      2  N   UNL     1       2.077   0.334  -1.550  0.00  0.00    -0.315 N 
ATOM      3  C   UNL     1       1.825  -0.425  -2.648  0.00  0.00    +0.201 A 
ATOM      4  N   UNL     1       2.457  -1.632  -2.627  0.00  0.00    -0.233 NA
ATOM      5  C   UNL     1       3.132  -1.591  -1.464  0.00  0.00    +0.126 A 
ATOM      6  C   UNL     1       3.973  -2.541  -0.905  0.00  0.00    +0.145 A 
ATOM      7  N   UNL     1       4.559  -2.240   0.292  0.00  0.00    -0.221 NA
ATOM      8  C   UNL     1       4.329  -1.041   0.922  0.00  0.00    +0.215 A 
ATOM      9  N   UNL     1       4.959  -0.763   2.170  0.00  0.00    -0.327 N 
ATOM     10  N   UNL     1       3.498  -0.113   0.357  0.00  0.00    -0.195 NA
ATOM     11  C   UNL     1       2.915  -0.419  -0.827  0.00  0.00    +0.165 A 
ATOM     12  H   UNL     1       4.790   0.145   2.657  0.00  0.00    +0.145 HD
ATOM     13  H   UNL     1       5.595  -1.465   2.609  0.00  0.00    +0.145 HD
ENDBRANCH   1   2
BRANCH   1  14
ATOM     14  C   UNL     1       0.765   1.787   0.003  0.00  0.00    +0.032 C 
BRANCH  14  15
ATOM     15  C   UNL     1      -0.587   1.027   0.003  0.00  0.00    +0.066 C 
BRANCH  15  16
ATOM     16  C   UNL     1      -0.409  -0.499   0.167  0.00  0.00    +0.239 C 
BRANCH  16  17
ATOM     17  O   UNL     1      -1.633  -1.117   0.564  0.00  0.00    -0.464 OA
BRANCH  17  19
ATOM     18  C   UNL     1      -3.467  -1.667   2.168  0.00  0.00    +0.136 C 
ATOM     19  C   UNL     1      -2.146  -1.047   1.864  0.00  0.00    +0.304 C 
ATOM     20  O   UNL     1      -1.498  -0.480   2.785  0.00  0.00    -0.251 OA
ENDBRANCH  17  19
ENDBRANCH  16  17
ENDBRANCH  15  16
BRANCH  15  21
ATOM     21  C   UNL     1      -1.456   1.375  -1.225  0.00  0.00    +0.239 C 
BRANCH  21  22
ATOM     22  O   UNL     1      -2.788   0.886  -1.069  0.00  0.00    -0.464 OA
BRANCH  22  23
ATOM     23  C   UNL     1      -3.734   1.480  -0.225  0.00  0.00    +0.304 C 
ATOM     24  C   UNL     1      -5.082   0.860  -0.083  0.00  0.00    +0.136 C 
ATOM     25  O   UNL     1      -3.474   2.552   0.385  0.00  0.00    -0.251 OA
ENDBRANCH  22  23
ENDBRANCH  21  22
ENDBRANCH  15  21
ENDBRANCH  14  15
ENDBRANCH   1  14
TORSDOF 9
