REMARK  Name = 
REMARK  8 active torsions:
REMARK  status: ('A' for Active; 'I' for Inactive)
REMARK    1  A    between atoms: N_4  and  C_5
REMARK    2  A    between atoms: C_7  and  C_8
REMARK    3  A    between atoms: C_8  and  S_9
REMARK    4  A    between atoms: S_9  and  C_10
REMARK    5  A    between atoms: C_10  and  C_11
REMARK    6  A    between atoms: C_11  and  C_12
REMARK    7  A    between atoms: N_14  and  S_15
REMARK    8  A    between atoms: S_15  and  N_16
REMARK                            x       y       z     vdW  Elec       q    Type
REMARK                         _______ _______ _______ _____ _____    ______ ____
ROOT
ATOM      1  C   UNL     1      -0.218   1.390   0.392  0.00  0.00    +0.125 C 
ENDROOT
BRANCH   1   4
ATOM      2  C   UNL     1      -3.236  -0.675   0.234  0.00  0.00    +0.196 A 
ATOM      3  N   UNL     1      -2.529   0.474   0.176  0.00  0.00    -0.225 NA
ATOM      4  C   UNL     1      -1.209   0.274   0.439  0.00  0.00    +0.061 A 
ATOM      5  C   UNL     1      -0.847  -1.047   0.694  0.00  0.00    +0.073 A 
ATOM      6  S   UNL     1      -2.239  -1.986   0.602  0.00  0.00    -0.056 S 
BRANCH   2  10
ATOM      7  N   UNL     1      -6.840  -1.550  -0.251  0.00  0.00    -0.370 N 
ATOM      8  C   UNL     1      -5.450  -1.736   0.015  0.00  0.00    +0.195 C 
ATOM      9  N   UNL     1      -4.967  -3.049   0.295  0.00  0.00    -0.370 N 
ATOM     10  N   UNL     1      -4.652  -0.706  -0.004  0.00  0.00    -0.189 NA
ATOM     11  H   UNL     1      -7.228  -0.603  -0.459  0.00  0.00    +0.159 HD
ATOM     12  H   UNL     1      -7.229  -0.603  -0.459  0.00  0.00    +0.159 HD
ATOM     13  H   UNL     1      -5.615  -3.868   0.305  0.00  0.00    +0.159 HD
ATOM     14  H   UNL     1      -5.616  -3.867   0.304  0.00  0.00    +0.159 HD
ENDBRANCH   2  10
ENDBRANCH   1   4
BRANCH   1  15
ATOM     15  S   UNL     1       0.595   1.402  -1.241  0.00  0.00    -0.154 S 
BRANCH  15  16
ATOM     16  C   UNL     1       1.951   2.545  -0.792  0.00  0.00    +0.077 C 
BRANCH  16  17
ATOM     17  C   UNL     1       3.258   1.792  -0.509  0.00  0.00    +0.083 C 
BRANCH  17  18
ATOM     18  C   UNL     1       3.218   1.048   0.810  0.00  0.00    +0.116 C 
ATOM     19  N   UNL     1       3.154   1.797   2.025  0.00  0.00    -0.345 N 
ATOM     20  N   UNL     1       3.258  -0.251   0.903  0.00  0.00    -0.108 NA
ATOM     21  H   UNL     1       3.158   2.841   2.025  0.00  0.00    +0.143 HD
ATOM     22  H   UNL     1       3.158   2.841   2.022  0.00  0.00    +0.143 HD
BRANCH  20  23
ATOM     23  S   UNL     1       3.403  -1.414  -0.381  0.00  0.00    +0.135 S 
ATOM     24  O   UNL     1       3.121  -2.779   0.179  0.00  0.00    -0.135 OA
ATOM     25  O   UNL     1       2.410  -1.133  -1.472  0.00  0.00    -0.135 OA
BRANCH  23  26
ATOM     26  N   UNL     1       5.011  -1.397  -1.019  0.00  0.00    -0.187 NA
ATOM     27  H   UNL     1       5.655  -1.606  -0.223  0.00  0.00    +0.146 HD
ATOM     28  H   UNL     1       5.221  -0.422  -1.325  0.00  0.00    +0.146 HD
ENDBRANCH  23  26
ENDBRANCH  20  23
ENDBRANCH  17  18
ENDBRANCH  16  17
ENDBRANCH  15  16
ENDBRANCH   1  15
TORSDOF 8
