REMARK  Name = 
REMARK  7 active torsions:
REMARK  status: ('A' for Active; 'I' for Inactive)
REMARK    1  A    between atoms: C_2  and  O_4
REMARK    2  A    between atoms: O_4  and  C_5
REMARK    3  A    between atoms: C_5  and  C_6
REMARK    4  A    between atoms: C_6  and  C_7
REMARK    5  A    between atoms: C_6  and  C_12
REMARK    6  A    between atoms: C_7  and  O_8
REMARK    7  A    between atoms: O_8  and  C_9
REMARK                            x       y       z     vdW  Elec       q    Type
REMARK                         _______ _______ _______ _____ _____    ______ ____
ROOT
ATOM      1  C   UNL     1      -0.411  -0.398   0.024  0.00  0.00    +0.094 C 
ENDROOT
BRANCH   1   2
ATOM      2  C   UNL     1      -0.522   1.066   0.413  0.00  0.00    -0.038 A 
ATOM      3  C   UNL     1      -0.295   1.460   1.745  0.00  0.00    +0.004 A 
ATOM      4  C   UNL     1      -0.392   2.806   2.112  0.00  0.00    +0.000 A 
ATOM      5  C   UNL     1      -0.715   3.772   1.157  0.00  0.00    +0.000 A 
ATOM      6  C   UNL     1      -0.944   3.394  -0.168  0.00  0.00    +0.000 A 
ATOM      7  C   UNL     1      -0.849   2.050  -0.541  0.00  0.00    +0.004 A 
ENDBRANCH   1   2
BRANCH   1   8
ATOM      8  C   UNL     1       0.705  -0.615  -1.012  0.00  0.00    +0.245 C 
BRANCH   8   9
ATOM      9  O   UNL     1       1.944  -0.135  -0.497  0.00  0.00    -0.450 OA
BRANCH   9  11
ATOM     10  N   UNL     1       4.336   0.312  -0.646  0.00  0.00    -0.295 N 
ATOM     11  C   UNL     1       3.136  -0.194  -1.224  0.00  0.00    +0.398 C 
ATOM     12  O   UNL     1       3.159  -0.688  -2.384  0.00  0.00    -0.227 OA
ATOM     13  H   UNL     1       5.236   0.276  -1.176  0.00  0.00    +0.148 HD
ATOM     14  H   UNL     1       4.324   0.724   0.313  0.00  0.00    +0.148 HD
ENDBRANCH   9  11
ENDBRANCH   8   9
ENDBRANCH   1   8
BRANCH   1  15
ATOM     15  C   UNL     1      -1.765  -0.928  -0.488  0.00  0.00    +0.245 C 
BRANCH  15  16
ATOM     16  O   UNL     1      -1.716  -2.338  -0.706  0.00  0.00    -0.450 OA
BRANCH  16  17
ATOM     17  C   UNL     1      -1.754  -3.280   0.327  0.00  0.00    +0.398 C 
ATOM     18  N   UNL     1      -1.643  -4.666   0.017  0.00  0.00    -0.295 N 
ATOM     19  O   UNL     1      -1.893  -2.918   1.527  0.00  0.00    -0.227 OA
ATOM     20  H   UNL     1      -1.529  -4.974  -0.974  0.00  0.00    +0.148 HD
ATOM     21  H   UNL     1      -1.673  -5.383   0.776  0.00  0.00    +0.148 HD
ENDBRANCH  16  17
ENDBRANCH  15  16
ENDBRANCH   1  15
TORSDOF 7
