REMARK  Name = 
REMARK  10 active torsions:
REMARK  status: ('A' for Active; 'I' for Inactive)
REMARK    1  A    between atoms: C_1  and  C_2
REMARK    2  A    between atoms: C_2  and  O_3
REMARK    3  A    between atoms: O_3  and  C_4
REMARK    4  A    between atoms: C_4  and  C_6
REMARK    5  A    between atoms: C_7  and  C_8
REMARK    6  A    between atoms: C_10  and  C_11
REMARK    7  A    between atoms: C_12  and  C_22
REMARK    8  A    between atoms: C_13  and  C_14
REMARK    9  A    between atoms: C_22  and  O_24
REMARK   10  A    between atoms: O_24  and  C_25
REMARK                            x       y       z     vdW  Elec       q    Type
REMARK                         _______ _______ _______ _____ _____    ______ ____
ROOT
ATOM      1  C   UNL     1       1.133  -0.267   0.034  0.00  0.00    +0.065 C 
ATOM      2  C   UNL     1       1.270  -1.601   0.216  0.00  0.00    +0.016 C 
ATOM      3  C   UNL     1       2.421  -2.203   0.979  0.00  0.00    +0.061 C 
ATOM      4  N   UNL     1       0.301  -2.493  -0.352  0.00  0.00    -0.321 N 
ATOM      5  C   UNL     1      -0.706  -2.046  -1.270  0.00  0.00    +0.016 C 
ATOM      6  C   UNL     1      -1.466  -3.091  -2.046  0.00  0.00    +0.061 C 
ATOM      7  C   UNL     1      -0.931  -0.719  -1.419  0.00  0.00    +0.065 C 
ATOM      8  C   UNL     1      -0.144   0.285  -0.587  0.00  0.00    +0.097 C 
ATOM      9  H   UNL     1       0.391  -3.518  -0.167  0.00  0.00    +0.152 HD
ENDROOT
BRANCH   8  10
ATOM     10  C   UNL     1      -1.048   0.867   0.495  0.00  0.00    -0.015 A 
ATOM     11  C   UNL     1      -1.431   2.234   0.511  0.00  0.00    +0.063 A 
ATOM     12 CL   UNL     1      -0.869   3.367  -0.724  0.00  0.00    -0.082 Cl
ATOM     13  C   UNL     1      -2.276   2.711   1.532  0.00  0.00    +0.060 A 
ATOM     14 CL   UNL     1      -2.776   4.397   1.597  0.00  0.00    -0.082 Cl
ATOM     15  C   UNL     1      -2.740   1.843   2.524  0.00  0.00    +0.021 A 
ATOM     16  C   UNL     1      -2.372   0.501   2.510  0.00  0.00    +0.002 A 
ATOM     17  C   UNL     1      -1.536   0.014   1.506  0.00  0.00    +0.006 A 
ENDBRANCH   8  10
BRANCH   1  18
ATOM     18  C   UNL     1       2.163   0.714   0.474  0.00  0.00    +0.338 C 
ATOM     19  O   UNL     1       1.816   1.892   0.762  0.00  0.00    -0.245 OA
BRANCH  18  20
ATOM     20  O   UNL     1       3.515   0.354   0.526  0.00  0.00    -0.462 OA
BRANCH  20  22
ATOM     21  C   UNL     1       4.867   2.195  -0.294  0.00  0.00    +0.048 C 
ATOM     22  C   UNL     1       4.560   1.262   0.871  0.00  0.00    +0.229 C 
ENDBRANCH  20  22
ENDBRANCH  18  20
ENDBRANCH   1  18
BRANCH   7  23
ATOM     23  C   UNL     1      -1.989  -0.180  -2.316  0.00  0.00    +0.337 C 
ATOM     24  O   UNL     1      -1.837   0.957  -2.841  0.00  0.00    -0.245 OA
BRANCH  23  25
ATOM     25  O   UNL     1      -3.170  -0.896  -2.539  0.00  0.00    -0.465 OA
ATOM     26  C   UNL     1      -4.218  -0.410  -3.368  0.00  0.00    +0.280 C 
ENDBRANCH  23  25
ENDBRANCH   7  23
TORSDOF 6
