REMARK  Name = 
REMARK  4 active torsions:
REMARK  status: ('A' for Active; 'I' for Inactive)
REMARK    1  A    between atoms: C_1  and  C_2
REMARK    2  A    between atoms: C_2  and  N_3
REMARK    3  A    between atoms: N_3  and  C_4
REMARK    4  A    between atoms: C_10  and  C_11
REMARK                            x       y       z     vdW  Elec       q    Type
REMARK                         _______ _______ _______ _____ _____    ______ ____
ROOT
ATOM      1  C   UNL     1      -0.772   0.575   0.873  0.00  0.00    +0.064 C 
ATOM      2  C   UNL     1      -1.536   1.848   0.416  0.00  0.00    +0.007 C 
ATOM      3  C   UNL     1      -0.966   3.078   1.150  0.00  0.00    +0.005 C 
ATOM      4  C   UNL     1       0.387   3.301   0.452  0.00  0.00    +0.004 C 
ATOM      5  C   UNL     1       0.450   2.128  -0.543  0.00  0.00    -0.002 C 
ATOM      6  C   UNL     1      -1.001   2.051  -0.978  0.00  0.00    +0.009 C 
ATOM      7  C   UNL     1       0.647   0.818   0.271  0.00  0.00    +0.039 C 
ENDROOT
BRANCH   7   8
ATOM      8  C   UNL     1       1.244  -0.352  -0.510  0.00  0.00    -0.043 A 
ATOM      9  C   UNL     1       1.987  -1.321   0.192  0.00  0.00    +0.004 A 
ATOM     10  C   UNL     1       2.514  -2.434  -0.468  0.00  0.00    +0.000 A 
ATOM     11  C   UNL     1       2.314  -2.595  -1.839  0.00  0.00    +0.000 A 
ATOM     12  C   UNL     1       1.590  -1.639  -2.553  0.00  0.00    +0.000 A 
ATOM     13  C   UNL     1       1.059  -0.524  -1.899  0.00  0.00    +0.004 A 
ENDBRANCH   7   8
BRANCH   1  14
ATOM     14  N   UNL     1      -1.402  -0.651   0.332  0.00  0.00    -0.313 NA
ATOM     15  H   UNL     1      -2.428  -0.498   0.190  0.00  0.00    +0.122 HD
BRANCH  14  17
ATOM     16  C   UNL     1      -1.503  -3.089   0.513  0.00  0.00    +0.020 C 
ATOM     17  C   UNL     1      -1.264  -1.783   1.258  0.00  0.00    +0.078 C 
ENDBRANCH  14  17
ENDBRANCH   1  14
TORSDOF 3
