REMARK  Name = 
REMARK  11 active torsions:
REMARK  status: ('A' for Active; 'I' for Inactive)
REMARK    1  A    between atoms: C_1  and  C_2
REMARK    2  A    between atoms: C_2  and  C_3
REMARK    3  A    between atoms: C_2  and  N_11
REMARK    4  A    between atoms: C_3  and  C_4
REMARK    5  A    between atoms: C_7  and  O_8
REMARK    6  A    between atoms: N_11  and  C_12
REMARK    7  A    between atoms: C_12  and  C_13
REMARK    8  A    between atoms: C_13  and  O_14
REMARK    9  A    between atoms: C_13  and  C_15
REMARK   10  A    between atoms: C_17  and  O_18
REMARK   11  A    between atoms: C_20  and  O_21
REMARK                            x       y       z     vdW  Elec       q    Type
REMARK                         _______ _______ _______ _____ _____    ______ ____
ROOT
ATOM      1  C   UNL     1       0.626   0.704  -0.592  0.00  0.00    +0.117 C 
ENDROOT
BRANCH   1   2
ATOM      2  N   UNL     1      -0.552   0.555  -1.456  0.00  0.00    -0.310 NA
ATOM      3  H   UNL     1      -0.251   0.570  -2.459  0.00  0.00    +0.122 HD
BRANCH   2   5
ATOM      4  C   UNL     1      -1.286   2.858  -2.058  0.00  0.00    +0.024 C 
ATOM      5  C   UNL     1      -1.561   1.605  -1.209  0.00  0.00    +0.055 C 
BRANCH   5   6
ATOM      6  C   UNL     1      -2.959   1.046  -1.523  0.00  0.00    +0.053 C 
BRANCH   6   7
ATOM      7  C   UNL     1      -3.305  -0.094  -0.599  0.00  0.00    -0.046 A 
ATOM      8  C   UNL     1      -3.829   0.167   0.678  0.00  0.00    +0.007 A 
ATOM      9  C   UNL     1      -4.107  -0.886   1.555  0.00  0.00    +0.045 A 
ATOM     10  C   UNL     1      -3.856  -2.210   1.169  0.00  0.00    +0.117 A 
ATOM     11  C   UNL     1      -3.324  -2.474  -0.098  0.00  0.00    +0.045 A 
ATOM     12  C   UNL     1      -3.046  -1.422  -0.977  0.00  0.00    +0.007 A 
BRANCH  10  13
ATOM     13  O   UNL     1      -4.128  -3.266   2.035  0.00  0.00    -0.507 OA
ATOM     14  H   UNL     1      -4.511  -3.108   2.959  0.00  0.00    +0.292 HD
ENDBRANCH  10  13
ENDBRANCH   6   7
ENDBRANCH   5   6
ENDBRANCH   2   5
ENDBRANCH   1   2
BRANCH   1  15
ATOM     15  C   UNL     1       1.603  -0.466  -0.822  0.00  0.00    +0.158 C 
BRANCH  15  16
ATOM     16  C   UNL     1       2.823  -0.330   0.065  0.00  0.00    -0.011 A 
ATOM     17  C   UNL     1       4.021   0.183  -0.466  0.00  0.00    +0.051 A 
ATOM     18  C   UNL     1       5.146   0.349   0.348  0.00  0.00    +0.121 A 
ATOM     19  C   UNL     1       5.081   0.009   1.706  0.00  0.00    +0.090 A 
ATOM     20  C   UNL     1       3.893  -0.489   2.250  0.00  0.00    +0.121 A 
ATOM     21  C   UNL     1       2.764  -0.651   1.434  0.00  0.00    +0.051 A 
BRANCH  18  22
ATOM     22  O   UNL     1       6.323   0.853  -0.201  0.00  0.00    -0.507 OA
ATOM     23  H   UNL     1       7.157   0.983   0.361  0.00  0.00    +0.292 HD
ENDBRANCH  18  22
BRANCH  20  24
ATOM     24  O   UNL     1       3.843  -0.817   3.603  0.00  0.00    -0.507 OA
ATOM     25  H   UNL     1       3.001  -1.190   4.028  0.00  0.00    +0.292 HD
ENDBRANCH  20  24
ENDBRANCH  15  16
BRANCH  15  26
ATOM     26  O   UNL     1       0.983  -1.717  -0.634  0.00  0.00    -0.386 OA
ATOM     27  H   UNL     1       0.403  -1.665   0.170  0.00  0.00    +0.210 HD
ENDBRANCH  15  26
ENDBRANCH   1  15
TORSDOF 10
