REMARK  Name = 
REMARK  4 active torsions:
REMARK  status: ('A' for Active; 'I' for Inactive)
REMARK    1  A    between atoms: O_1  and  C_2
REMARK    2  A    between atoms: C_5  and  C_8
REMARK    3  A    between atoms: C_16  and  O_17
REMARK    4  A    between atoms: C_18  and  O_19
REMARK                            x       y       z     vdW  Elec       q    Type
REMARK                         _______ _______ _______ _____ _____    ______ ____
ROOT
ATOM      1  C   UNL     1       0.023  -1.051   0.294  0.00  0.00    +0.063 C 
ATOM      2  C   UNL     1      -0.336  -2.083  -0.803  0.00  0.00    +0.093 C 
ATOM      3  N   UNL     1      -1.501  -2.913  -0.464  0.00  0.00    -0.315 NA
ATOM      4  C   UNL     1      -2.651  -2.156   0.043  0.00  0.00    +0.085 C 
ATOM      5  C   UNL     1      -2.926  -0.889  -0.775  0.00  0.00    +0.052 C 
ATOM      6  C   UNL     1      -2.142   0.326  -0.295  0.00  0.00    -0.020 A 
ATOM      7  C   UNL     1      -2.750   1.604  -0.411  0.00  0.00    +0.089 A 
ATOM      8 CL   UNL     1      -4.274   1.828  -1.282  0.00  0.00    -0.079 Cl
ATOM      9  C   UNL     1      -2.152   2.742   0.149  0.00  0.00    +0.177 A 
ATOM     10  C   UNL     1      -0.937   2.617   0.846  0.00  0.00    +0.160 A 
ATOM     11  C   UNL     1      -0.296   1.382   0.892  0.00  0.00    +0.053 A 
ATOM     12  C   UNL     1      -0.823   0.238   0.256  0.00  0.00    -0.030 A 
ATOM     13  H   UNL     1      -1.216  -3.599   0.274  0.00  0.00    +0.122 HD
ENDROOT
BRANCH   1  17
ATOM     14  C   UNL     1       4.262  -0.203  -0.067  0.00  0.00    +0.117 A 
ATOM     15  C   UNL     1       3.376   0.208  -1.072  0.00  0.00    +0.045 A 
ATOM     16  C   UNL     1       2.010  -0.064  -0.957  0.00  0.00    +0.008 A 
ATOM     17  C   UNL     1       1.511  -0.747   0.168  0.00  0.00    -0.039 A 
ATOM     18  C   UNL     1       2.409  -1.161   1.168  0.00  0.00    +0.008 A 
ATOM     19  C   UNL     1       3.775  -0.888   1.050  0.00  0.00    +0.045 A 
BRANCH  14  20
ATOM     20  O   UNL     1       5.625   0.063  -0.171  0.00  0.00    -0.507 OA
ATOM     21  H   UNL     1       6.010   0.557  -0.968  0.00  0.00    +0.292 HD
ENDBRANCH  14  20
ENDBRANCH   1  17
BRANCH   9  22
ATOM     22  O   UNL     1      -2.793   3.975  -0.006  0.00  0.00    -0.502 OA
ATOM     23  H   UNL     1      -2.407   4.856   0.300  0.00  0.00    +0.292 HD
ENDBRANCH   9  22
BRANCH  10  24
ATOM     24  O   UNL     1      -0.331   3.689   1.504  0.00  0.00    -0.503 OA
ATOM     25  H   UNL     1      -0.744   4.607   1.591  0.00  0.00    +0.292 HD
ENDBRANCH  10  24
TORSDOF 4
