REMARK  Name = 
REMARK  6 active torsions:
REMARK  status: ('A' for Active; 'I' for Inactive)
REMARK    1  A    between atoms: C_1  and  C_2
REMARK    2  A    between atoms: C_2  and  C_3
REMARK    3  A    between atoms: C_2  and  C_6
REMARK    4  A    between atoms: C_3  and  O_4
REMARK    5  A    between atoms: C_8  and  O_9
REMARK    6  A    between atoms: O_9  and  C_10
REMARK                            x       y       z     vdW  Elec       q    Type
REMARK                         _______ _______ _______ _____ _____    ______ ____
ROOT
ATOM      1  C   UNL     1       2.074   0.039  -0.894  0.00  0.00    -0.030 A 
ATOM      2  C   UNL     1       0.976   0.665  -0.273  0.00  0.00    +0.050 A 
ATOM      3  C   UNL     1      -0.332   0.231  -0.521  0.00  0.00    +0.129 A 
ATOM      4  C   UNL     1      -0.549  -0.820  -1.428  0.00  0.00    +0.046 A 
ATOM      5  C   UNL     1       0.533  -1.445  -2.052  0.00  0.00    +0.004 A 
ATOM      6  C   UNL     1       1.837  -1.022  -1.786  0.00  0.00    +0.004 A 
ENDROOT
BRANCH   1   8
ATOM      7  C   UNL     1       3.716   1.926  -1.147  0.00  0.00    +0.024 C 
ATOM      8  C   UNL     1       3.491   0.502  -0.623  0.00  0.00    +0.124 C 
BRANCH   8   9
ATOM      9  C   UNL     1       3.816   0.377   0.845  0.00  0.00    +0.312 C 
ATOM     10  O   UNL     1       3.630   1.346   1.629  0.00  0.00    -0.250 OA
BRANCH   9  11
ATOM     11  O   UNL     1       4.272  -0.833   1.359  0.00  0.00    -0.480 OA
ATOM     12  H   UNL     1       4.404  -1.641   0.763  0.00  0.00    +0.295 HD
ENDBRANCH   9  11
ENDBRANCH   8   9
ENDBRANCH   1   8
BRANCH   3  13
ATOM     13  O   UNL     1      -1.393   0.895   0.112  0.00  0.00    -0.456 OA
BRANCH  13  14
ATOM     14  C   UNL     1      -2.616   0.313   0.474  0.00  0.00    +0.128 A 
ATOM     15  C   UNL     1      -2.716  -1.041   0.848  0.00  0.00    +0.046 A 
ATOM     16  C   UNL     1      -3.952  -1.579   1.219  0.00  0.00    +0.004 A 
ATOM     17  C   UNL     1      -5.093  -0.771   1.231  0.00  0.00    +0.000 A 
ATOM     18  C   UNL     1      -4.996   0.578   0.880  0.00  0.00    +0.004 A 
ATOM     19  C   UNL     1      -3.761   1.119   0.509  0.00  0.00    +0.046 A 
ENDBRANCH  13  14
ENDBRANCH   3  13
TORSDOF 5
