REMARK  Name = 
REMARK  11 active torsions:
REMARK  status: ('A' for Active; 'I' for Inactive)
REMARK    1  A    between atoms: C_1  and  C_2
REMARK    2  A    between atoms: C_2  and  C_3
REMARK    3  A    between atoms: C_2  and  O_4
REMARK    4  A    between atoms: O_4  and  C_5
REMARK    5  A    between atoms: C_5  and  C_7
REMARK    6  A    between atoms: C_7  and  C_8
REMARK    7  A    between atoms: C_7  and  C_9
REMARK    8  A    between atoms: C_7  and  O_10
REMARK    9  A    between atoms: O_10  and  C_11
REMARK   10  A    between atoms: C_14  and  C_17
REMARK   11  A    between atoms: C_17  and  C_19
REMARK                            x       y       z     vdW  Elec       q    Type
REMARK                         _______ _______ _______ _____ _____    ______ ____
ROOT
ATOM      1  C   UNL     1       0.202   0.517  -0.212  0.00  0.00    +0.122 A 
ATOM      2  C   UNL     1       0.665   0.618  -1.528  0.00  0.00    +0.046 A 
ATOM      3  C   UNL     1       2.002   0.336  -1.827  0.00  0.00    +0.015 A 
ATOM      4  C   UNL     1       2.898  -0.029  -0.807  0.00  0.00    +0.022 A 
ATOM      5  C   UNL     1       2.424  -0.127   0.514  0.00  0.00    +0.015 A 
ATOM      6  C   UNL     1       1.087   0.155   0.809  0.00  0.00    +0.046 A 
ENDROOT
BRANCH   4   7
ATOM      7  C   UNL     1       4.309  -0.344  -1.138  0.00  0.00    +0.193 C 
ATOM      8  O   UNL     1       4.569  -0.863  -2.258  0.00  0.00    -0.287 OA
BRANCH   7   9
ATOM      9  C   UNL     1       5.425  -0.071  -0.200  0.00  0.00    +0.022 A 
ATOM     10  C   UNL     1       5.392   1.041   0.661  0.00  0.00    +0.013 A 
ATOM     11  C   UNL     1       6.459   1.297   1.528  0.00  0.00    +0.021 A 
ATOM     12  C   UNL     1       7.573   0.453   1.538  0.00  0.00    +0.041 A 
ATOM     13 CL   UNL     1       8.910   0.776   2.626  0.00  0.00    -0.084 Cl
ATOM     14  C   UNL     1       7.622  -0.646   0.675  0.00  0.00    +0.021 A 
ATOM     15  C   UNL     1       6.558  -0.904  -0.194  0.00  0.00    +0.013 A 
ENDBRANCH   7   9
ENDBRANCH   4   7
BRANCH   1  16
ATOM     16  O   UNL     1      -1.133   0.811   0.087  0.00  0.00    -0.475 OA
BRANCH  16  17
ATOM     17  C   UNL     1      -2.193  -0.159   0.086  0.00  0.00    +0.200 C 
ATOM     18  C   UNL     1      -2.346  -0.778  -1.314  0.00  0.00    +0.067 C 
ATOM     19  C   UNL     1      -1.908  -1.258   1.125  0.00  0.00    +0.067 C 
BRANCH  17  20
ATOM     20  C   UNL     1      -3.482   0.535   0.454  0.00  0.00    +0.351 C 
ATOM     21  O   UNL     1      -3.486   1.770   0.712  0.00  0.00    -0.246 OA
BRANCH  20  22
ATOM     22  O   UNL     1      -4.670  -0.205   0.515  0.00  0.00    -0.459 OA
BRANCH  22  24
ATOM     23  C   UNL     1      -6.916  -0.739   1.186  0.00  0.00    +0.052 C 
ATOM     24  C   UNL     1      -5.947   0.372   0.788  0.00  0.00    +0.170 C 
ATOM     25  C   UNL     1      -6.463   1.117  -0.446  0.00  0.00    +0.052 C 
ENDBRANCH  22  24
ENDBRANCH  20  22
ENDBRANCH  17  20
ENDBRANCH  16  17
ENDBRANCH   1  16
TORSDOF 7
