REMARK  Name = 
REMARK  7 active torsions:
REMARK  status: ('A' for Active; 'I' for Inactive)
REMARK    1  A    between atoms: C_1  and  C_2
REMARK    2  A    between atoms: C_2  and  C_3
REMARK    3  A    between atoms: N_5  and  C_6
REMARK    4  A    between atoms: N_5  and  C_20
REMARK    5  A    between atoms: N_9  and  C_10
REMARK    6  A    between atoms: C_10  and  C_11
REMARK    7  A    between atoms: C_11  and  C_12
REMARK                            x       y       z     vdW  Elec       q    Type
REMARK                         _______ _______ _______ _____ _____    ______ ____
ROOT
ATOM      1  C   UNL     1      -1.523   0.358  -0.510  0.00  0.00    +0.084 C 
ATOM      2  C   UNL     1      -0.786   1.370   0.387  0.00  0.00    +0.038 C 
ATOM      3  C   UNL     1       0.640   1.596  -0.127  0.00  0.00    +0.086 C 
ATOM      4  N   UNL     1       1.383   0.318  -0.169  0.00  0.00    -0.302 NA
ATOM      5  C   UNL     1       0.719  -0.627  -1.095  0.00  0.00    +0.086 C 
ATOM      6  C   UNL     1      -0.704  -0.937  -0.618  0.00  0.00    +0.038 C 
ENDROOT
BRANCH   1   9
ATOM      7  C   UNL     1      -3.944  -0.194  -0.987  0.00  0.00    +0.220 C 
ATOM      8  O   UNL     1      -3.654  -0.381  -2.201  0.00  0.00    -0.275 OA
ATOM      9  N   UNL     1      -2.892   0.072  -0.031  0.00  0.00    -0.268 N 
BRANCH   9  10
ATOM     10  C   UNL     1      -3.131  -0.203   1.361  0.00  0.00    +0.037 A 
ATOM     11  C   UNL     1      -3.403   0.847   2.251  0.00  0.00    +0.023 A 
ATOM     12  C   UNL     1      -3.657   0.577   3.599  0.00  0.00    +0.002 A 
ATOM     13  C   UNL     1      -3.651  -0.743   4.061  0.00  0.00    +0.000 A 
ATOM     14  C   UNL     1      -3.396  -1.794   3.175  0.00  0.00    +0.002 A 
ATOM     15  C   UNL     1      -3.142  -1.526   1.827  0.00  0.00    +0.023 A 
ENDBRANCH   9  10
BRANCH   7  17
ATOM     16  C   UNL     1      -6.364   0.107  -1.636  0.00  0.00    +0.013 C 
ATOM     17  C   UNL     1      -5.383  -0.322  -0.547  0.00  0.00    +0.093 C 
ENDBRANCH   7  17
ENDBRANCH   1   9
BRANCH   4  18
ATOM     18  C   UNL     1       2.788   0.549  -0.570  0.00  0.00    +0.089 C 
BRANCH  18  19
ATOM     19  C   UNL     1       3.700  -0.532   0.023  0.00  0.00    +0.050 C 
BRANCH  19  20
ATOM     20  C   UNL     1       5.141  -0.251  -0.307  0.00  0.00    -0.046 A 
ATOM     21  C   UNL     1       5.929   0.526   0.559  0.00  0.00    +0.003 A 
ATOM     22  C   UNL     1       7.258   0.814   0.235  0.00  0.00    +0.000 A 
ATOM     23  C   UNL     1       7.807   0.336  -0.959  0.00  0.00    +0.000 A 
ATOM     24  C   UNL     1       7.026  -0.426  -1.832  0.00  0.00    +0.000 A 
ATOM     25  C   UNL     1       5.696  -0.715  -1.511  0.00  0.00    +0.003 A 
ENDBRANCH  19  20
ENDBRANCH  18  19
ENDBRANCH   4  18
TORSDOF 6
