REMARK  Name = 
REMARK  15 active torsions:
REMARK  status: ('A' for Active; 'I' for Inactive)
REMARK    1  A    between atoms: C_1  and  C_2
REMARK    2  A    between atoms: C_2  and  C_3
REMARK    3  A    between atoms: C_2  and  C_4
REMARK    4  A    between atoms: C_2  and  C_7
REMARK    5  A    between atoms: C_4  and  O_5
REMARK    6  A    between atoms: C_10  and  C_13
REMARK    7  A    between atoms: C_13  and  O_14
REMARK    8  A    between atoms: C_13  and  C_15
REMARK    9  A    between atoms: C_15  and  C_16
REMARK   10  A    between atoms: C_16  and  C_17
REMARK   11  A    between atoms: C_17  and  N_18
REMARK   12  A    between atoms: C_21  and  C_24
REMARK   13  A    between atoms: C_24  and  O_25
REMARK   14  A    between atoms: C_24  and  C_26
REMARK   15  A    between atoms: C_24  and  C_32
REMARK                            x       y       z     vdW  Elec       q    Type
REMARK                         _______ _______ _______ _____ _____    ______ ____
ROOT
ATOM      1  N   UNL     1      -1.163  -0.341  -1.501  0.00  0.00    -0.302 NA
ATOM      2  C   UNL     1      -1.949  -1.459  -0.952  0.00  0.00    +0.085 C 
ATOM      3  C   UNL     1      -3.346  -1.450  -1.577  0.00  0.00    +0.022 C 
ATOM      4  C   UNL     1      -4.103  -0.108  -1.355  0.00  0.00    +0.032 C 
ATOM      5  C   UNL     1      -3.167   1.084  -1.721  0.00  0.00    +0.022 C 
ATOM      6  C   UNL     1      -1.752   0.958  -1.135  0.00  0.00    +0.085 C 
ENDROOT
BRANCH   1   7
ATOM      7  C   UNL     1       0.285  -0.435  -1.210  0.00  0.00    +0.084 C 
BRANCH   7   8
ATOM      8  C   UNL     1       0.637  -0.427   0.296  0.00  0.00    +0.018 C 
BRANCH   8   9
ATOM      9  C   UNL     1       2.156  -0.519   0.537  0.00  0.00    +0.037 C 
BRANCH   9  10
ATOM     10  C   UNL     1       2.885   0.821   0.321  0.00  0.00    +0.145 C 
BRANCH  10  14
ATOM     11  C   UNL     1       7.180   0.193   0.620  0.00  0.00    -0.031 A 
ATOM     12  C   UNL     1       6.385   0.318   1.781  0.00  0.00    +0.005 A 
ATOM     13  C   UNL     1       5.006   0.528   1.686  0.00  0.00    +0.006 A 
ATOM     14  C   UNL     1       4.381   0.617   0.432  0.00  0.00    -0.019 A 
ATOM     15  C   UNL     1       5.153   0.445  -0.724  0.00  0.00    +0.006 A 
ATOM     16  C   UNL     1       6.530   0.232  -0.632  0.00  0.00    +0.005 A 
BRANCH  11  18
ATOM     17  C   UNL     1       9.318   0.225   2.060  0.00  0.00    +0.027 C 
ATOM     18  C   UNL     1       8.697  -0.066   0.674  0.00  0.00    +0.087 C 
ATOM     19  C   UNL     1       8.944  -1.551   0.332  0.00  0.00    +0.027 C 
BRANCH  18  20
ATOM     20  C   UNL     1       9.404   0.834  -0.326  0.00  0.00    +0.315 C 
ATOM     21  O   UNL     1       9.131   2.066  -0.366  0.00  0.00    -0.250 OA
BRANCH  20  22
ATOM     22  O   UNL     1      10.389   0.329  -1.174  0.00  0.00    -0.480 OA
ATOM     23  H   UNL     1      10.836   0.924  -1.860  0.00  0.00    +0.295 HD
ENDBRANCH  20  22
ENDBRANCH  18  20
ENDBRANCH  11  18
ENDBRANCH  10  14
BRANCH  10  24
ATOM     24  O   UNL     1       2.448   1.758   1.273  0.00  0.00    -0.387 OA
ATOM     25  H   UNL     1       2.758   2.648   0.962  0.00  0.00    +0.210 HD
ENDBRANCH  10  24
ENDBRANCH   9  10
ENDBRANCH   8   9
ENDBRANCH   7   8
ENDBRANCH   1   7
BRANCH   4  26
ATOM     26  C   UNL     1      -4.801   0.040   0.056  0.00  0.00    +0.119 C 
BRANCH  26  27
ATOM     27  C   UNL     1      -5.710   1.295   0.178  0.00  0.00    -0.011 A 
ATOM     28  C   UNL     1      -6.193   2.014  -0.947  0.00  0.00    +0.007 A 
ATOM     29  C   UNL     1      -7.056   3.102  -0.790  0.00  0.00    +0.000 A 
ATOM     30  C   UNL     1      -7.482   3.485   0.479  0.00  0.00    +0.000 A 
ATOM     31  C   UNL     1      -7.060   2.769   1.596  0.00  0.00    +0.000 A 
ATOM     32  C   UNL     1      -6.198   1.679   1.450  0.00  0.00    +0.007 A 
ENDBRANCH  26  27
BRANCH  26  33
ATOM     33  C   UNL     1      -5.676  -1.201   0.320  0.00  0.00    -0.011 A 
ATOM     34  C   UNL     1      -6.910  -1.354  -0.349  0.00  0.00    +0.007 A 
ATOM     35  C   UNL     1      -7.705  -2.483  -0.134  0.00  0.00    +0.000 A 
ATOM     36  C   UNL     1      -7.275  -3.490   0.730  0.00  0.00    +0.000 A 
ATOM     37  C   UNL     1      -6.041  -3.377   1.369  0.00  0.00    +0.000 A 
ATOM     38  C   UNL     1      -5.242  -2.249   1.164  0.00  0.00    +0.007 A 
ENDBRANCH  26  33
BRANCH  26  39
ATOM     39  O   UNL     1      -3.767   0.149   1.013  0.00  0.00    -0.379 OA
ATOM     40  H   UNL     1      -4.133   0.045   1.927  0.00  0.00    +0.211 HD
ENDBRANCH  26  39
ENDBRANCH   4  26
TORSDOF 13
