REMARK  Name = 
REMARK  34 active torsions:
REMARK  status: ('A' for Active; 'I' for Inactive)
REMARK    1  A    between atoms: C_1  and  C_2
REMARK    2  A    between atoms: C_2  and  C_3
REMARK    3  A    between atoms: C_5  and  C_6
REMARK    4  A    between atoms: C_7  and  O_8
REMARK    5  A    between atoms: C_13  and  C_14
REMARK    6  A    between atoms: C_14  and  O_15
REMARK    7  A    between atoms: O_15  and  C_16
REMARK    8  A    between atoms: C_18  and  C_19
REMARK    9  A    between atoms: C_20  and  O_21
REMARK   10  A    between atoms: O_21  and  C_22
REMARK   11  A    between atoms: C_22  and  C_24
REMARK   12  A    between atoms: C_25  and  C_26
REMARK   13  A    between atoms: C_26  and  C_27
REMARK   14  A    between atoms: C_30  and  O_31
REMARK   15  A    between atoms: C_34  and  O_35
REMARK   16  A    between atoms: C_36  and  O_37
REMARK   17  A    between atoms: C_38  and  O_39
REMARK   18  A    between atoms: O_39  and  C_40
REMARK   19  A    between atoms: C_44  and  C_70
REMARK   20  A    between atoms: C_47  and  C_48
REMARK   21  A    between atoms: C_50  and  C_51
REMARK   22  A    between atoms: C_52  and  O_53
REMARK   23  A    between atoms: O_53  and  C_54
REMARK   24  A    between atoms: C_56  and  C_57
REMARK   25  A    between atoms: C_56  and  C_58
REMARK   26  A    between atoms: C_59  and  O_60
REMARK   27  A    between atoms: O_60  and  C_61
REMARK   28  A    between atoms: C_61  and  C_63
REMARK   29  A    between atoms: C_63  and  C_64
REMARK   30  A    between atoms: C_63  and  C_65
REMARK   31  A    between atoms: C_66  and  O_67
REMARK   32  A    between atoms: C_68  and  O_69
REMARK   33  A    between atoms: C_70  and  C_71
REMARK   34  A    between atoms: C_70  and  O_72
REMARK                            x       y       z     vdW  Elec       q    Type
REMARK                         _______ _______ _______ _____ _____    ______ ____
ROOT
ATOM      1  C   UNL     1      -3.546  -1.813  -1.303  0.00  0.00    +0.045 C 
ATOM      2  C   UNL     1      -2.646  -1.110  -2.317  0.00  0.00    -0.019 C 
ATOM      3  C   UNL     1      -1.439  -1.538  -2.729  0.00  0.00    -0.048 C 
ATOM      4  C   UNL     1      -0.688  -2.546  -1.910  0.00  0.00    +0.041 C 
ATOM      5  C   UNL     1      -0.863  -1.052  -4.063  0.00  0.00    +0.144 C 
ATOM      6  C   UNL     1      -0.113   0.260  -3.876  0.00  0.00    +0.063 C 
ATOM      7  C   UNL     1       0.907   0.096  -2.831  0.00  0.00    -0.024 C 
ATOM      8  C   UNL     1       0.703   0.623  -1.625  0.00  0.00    -0.004 C 
ATOM      9  C   UNL     1       1.289   0.199  -0.339  0.00  0.00    +0.012 C 
ATOM     10  C   UNL     1       2.265  -0.680   0.024  0.00  0.00    +0.062 C 
ATOM     11  C   UNL     1       2.431  -0.827   1.481  0.00  0.00    +0.338 C 
ATOM     12  O   UNL     1       2.873  -1.904   1.974  0.00  0.00    -0.245 OA
ATOM     13  O   UNL     1       2.263   0.279   2.295  0.00  0.00    -0.455 OA
ATOM     14  C   UNL     1       1.803   0.163   3.652  0.00  0.00    +0.209 C 
ATOM     15  C   UNL     1       0.313   0.544   3.735  0.00  0.00    +0.074 C 
ATOM     16  C   UNL     1      -0.541  -0.197   2.714  0.00  0.00    -0.020 C 
ATOM     17  C   UNL     1      -1.755   0.260   2.323  0.00  0.00    -0.054 C 
ATOM     18  C   UNL     1      -2.371   1.451   2.978  0.00  0.00    +0.043 C 
ATOM     19  C   UNL     1      -2.579  -0.507   1.334  0.00  0.00    +0.004 C 
ATOM     20  C   UNL     1      -3.338   0.087   0.360  0.00  0.00    -0.043 C 
ATOM     21  C   UNL     1      -3.128   1.523  -0.042  0.00  0.00    +0.042 C 
ATOM     22  C   UNL     1      -4.281  -0.728  -0.490  0.00  0.00    +0.154 C 
ENDROOT
BRANCH   1  24
ATOM     23  C   UNL     1      -3.930  -3.761  -2.949  0.00  0.00    +0.004 C 
ATOM     24  C   UNL     1      -4.567  -2.686  -2.073  0.00  0.00    +0.007 C 
ENDBRANCH   1  24
BRANCH   5  25
ATOM     25  O   UNL     1      -1.877  -0.913  -5.022  0.00  0.00    -0.387 OA
ATOM     26  H   UNL     1      -2.289  -1.806  -5.154  0.00  0.00    +0.210 HD
ENDBRANCH   5  25
BRANCH  14  27
ATOM     27  C   UNL     1       2.679   1.034   4.598  0.00  0.00    +0.152 C 
ATOM     28  C   UNL     1       2.435   2.561   4.396  0.00  0.00    +0.041 C 
BRANCH  27  29
ATOM     29  O   UNL     1       2.480   0.743   5.971  0.00  0.00    -0.388 OA
ATOM     30  H   UNL     1       2.050  -0.151   6.057  0.00  0.00    +0.210 HD
ENDBRANCH  27  29
ENDBRANCH  14  27
BRANCH  10  31
ATOM     31  C   UNL     1       3.267  -1.403  -0.848  0.00  0.00    +0.205 C 
BRANCH  31  32
ATOM     32  O   UNL     1       4.542  -0.829  -0.691  0.00  0.00    -0.344 OA
BRANCH  32  33
ATOM     33  C   UNL     1       4.698   0.319  -1.513  0.00  0.00    +0.282 C 
ATOM     34  O   UNL     1       5.496   0.016  -2.639  0.00  0.00    -0.342 OA
ATOM     35  C   UNL     1       6.805  -0.454  -2.328  0.00  0.00    +0.162 C 
ATOM     36  C   UNL     1       6.860  -1.974  -2.361  0.00  0.00    +0.042 C 
ATOM     37  C   UNL     1       7.385   0.101  -1.009  0.00  0.00    +0.236 C 
ATOM     38  C   UNL     1       6.854   1.503  -0.817  0.00  0.00    +0.191 C 
ATOM     39  C   UNL     1       5.322   1.495  -0.720  0.00  0.00    +0.206 C 
BRANCH  38  40
ATOM     40  O   UNL     1       7.439   2.100   0.328  0.00  0.00    -0.385 OA
ATOM     41  H   UNL     1       7.279   3.085   0.298  0.00  0.00    +0.210 HD
ENDBRANCH  38  40
BRANCH  39  42
ATOM     42  O   UNL     1       4.946   1.401   0.641  0.00  0.00    -0.372 OA
ATOM     43  C   UNL     1       4.227   2.546   1.058  0.00  0.00    +0.194 C 
ENDBRANCH  39  42
BRANCH  37  44
ATOM     44  O   UNL     1       8.816   0.100  -1.067  0.00  0.00    -0.452 OA
BRANCH  44  45
ATOM     45  C   UNL     1       9.601  -0.568  -0.116  0.00  0.00    +0.344 C 
ATOM     46  O   UNL     1       9.073  -1.357   0.738  0.00  0.00    -0.245 OA
BRANCH  45  47
ATOM     47  C   UNL     1      11.063  -0.397  -0.151  0.00  0.00    +0.106 A 
ATOM     48  C   UNL     1      11.697   0.556   0.677  0.00  0.00    -0.008 A 
ATOM     49  C   UNL     1      13.104   0.564   0.762  0.00  0.00    +0.088 A 
ATOM     50 CL   UNL     1      13.931   1.640   1.899  0.00  0.00    -0.079 Cl
ATOM     51  C   UNL     1      13.874  -0.299  -0.030  0.00  0.00    +0.157 A 
ATOM     52  C   UNL     1      13.249  -1.237  -0.861  0.00  0.00    +0.126 A 
ATOM     53 CL   UNL     1      14.220  -2.413  -1.738  0.00  0.00    -0.076 Cl
ATOM     54  C   UNL     1      11.832  -1.301  -0.917  0.00  0.00    +0.153 A 
BRANCH  48  55
ATOM     55  C   UNL     1      10.882   1.586   1.429  0.00  0.00    +0.034 C 
ATOM     56  C   UNL     1      10.482   1.042   2.792  0.00  0.00    +0.009 C 
ENDBRANCH  48  55
BRANCH  51  57
ATOM     57  O   UNL     1      15.256  -0.239   0.078  0.00  0.00    -0.504 OA
ATOM     58  H   UNL     1      15.877  -0.525  -0.676  0.00  0.00    +0.292 HD
ENDBRANCH  51  57
BRANCH  54  59
ATOM     59  O   UNL     1      11.172  -2.257  -1.710  0.00  0.00    -0.504 OA
ATOM     60  H   UNL     1      11.663  -2.821  -2.377  0.00  0.00    +0.292 HD
ENDBRANCH  54  59
ENDBRANCH  45  47
ENDBRANCH  44  45
ENDBRANCH  37  44
ENDBRANCH  32  33
ENDBRANCH  31  32
ENDBRANCH  10  31
BRANCH  22  61
ATOM     61  O   UNL     1      -5.333  -1.292   0.317  0.00  0.00    -0.341 OA
BRANCH  61  62
ATOM     62  C   UNL     1      -6.606  -0.888  -0.185  0.00  0.00    +0.283 C 
ATOM     63  O   UNL     1      -6.922   0.386   0.367  0.00  0.00    -0.339 OA
ATOM     64  C   UNL     1      -8.075   0.959  -0.231  0.00  0.00    +0.106 C 
ATOM     65  C   UNL     1      -7.847   1.248  -1.749  0.00  0.00    +0.045 C 
ATOM     66  C   UNL     1      -8.274   2.316   0.458  0.00  0.00    +0.045 C 
ATOM     67  C   UNL     1      -9.316   0.075   0.024  0.00  0.00    +0.239 C 
ATOM     68  C   UNL     1      -9.070  -1.399  -0.406  0.00  0.00    +0.191 C 
ATOM     69  C   UNL     1      -7.712  -1.916   0.098  0.00  0.00    +0.202 C 
BRANCH  68  70
ATOM     70  O   UNL     1     -10.126  -2.252  -0.004  0.00  0.00    -0.385 OA
ATOM     71  H   UNL     1     -10.157  -2.274   1.006  0.00  0.00    +0.210 HD
ENDBRANCH  68  70
BRANCH  69  72
ATOM     72  O   UNL     1      -7.749  -2.236   1.476  0.00  0.00    -0.384 OA
ATOM     73  H   UNL     1      -8.063  -3.186   1.530  0.00  0.00    +0.210 HD
ENDBRANCH  69  72
BRANCH  67  74
ATOM     74  O   UNL     1     -10.426   0.668  -0.673  0.00  0.00    -0.456 OA
BRANCH  74  75
ATOM     75  C   UNL     1     -11.739   0.197  -0.603  0.00  0.00    +0.310 C 
ATOM     76  O   UNL     1     -12.108  -0.768  -1.344  0.00  0.00    -0.251 OA
BRANCH  75  77
ATOM     77  C   UNL     1     -12.718   0.829   0.359  0.00  0.00    +0.092 C 
ATOM     78  C   UNL     1     -13.509   1.939  -0.330  0.00  0.00    +0.019 C 
ATOM     79  C   UNL     1     -11.962   1.369   1.586  0.00  0.00    +0.019 C 
ENDBRANCH  75  77
ENDBRANCH  74  75
ENDBRANCH  67  74
ENDBRANCH  61  62
ENDBRANCH  22  61
TORSDOF 22
