REMARK  Name = 
REMARK  7 active torsions:
REMARK  status: ('A' for Active; 'I' for Inactive)
REMARK    1  A    between atoms: C_4  and  C_5
REMARK    2  A    between atoms: N_7  and  C_8
REMARK    3  A    between atoms: C_8  and  C_9
REMARK    4  A    between atoms: C_8  and  C_10
REMARK    5  A    between atoms: C_8  and  C_11
REMARK    6  A    between atoms: C_12  and  C_13
REMARK    7  A    between atoms: C_26  and  C_27
REMARK                            x       y       z     vdW  Elec       q    Type
REMARK                         _______ _______ _______ _____ _____    ______ ____
ROOT
ATOM      1  C   UNL     1      -0.360  -0.861  -0.673  0.00  0.00    -0.001 C 
ATOM      2  C   UNL     1       0.444  -2.154  -0.651  0.00  0.00    +0.005 C 
ATOM      3  C   UNL     1       1.894  -1.695  -0.889  0.00  0.00    +0.013 C 
ATOM      4  C   UNL     1       1.884  -0.145  -0.858  0.00  0.00    +0.081 C 
ATOM      5  C   UNL     1       0.586   0.195  -0.078  0.00  0.00    -0.018 C 
ATOM      6  C   UNL     1       0.816   0.028   1.463  0.00  0.00    +0.012 C 
ATOM      7  C   UNL     1      -0.014   1.588  -0.383  0.00  0.00    +0.008 C 
ATOM      8  C   UNL     1      -1.452   1.718   0.176  0.00  0.00    +0.005 C 
ATOM      9  C   UNL     1      -2.397   0.576  -0.317  0.00  0.00    +0.004 C 
ATOM     10  C   UNL     1      -1.768  -0.838  -0.041  0.00  0.00    -0.003 C 
ATOM     11  C   UNL     1      -2.653  -1.965  -0.613  0.00  0.00    +0.006 C 
ATOM     12  C   UNL     1      -4.080  -1.888  -0.060  0.00  0.00    +0.023 C 
ATOM     13  C   UNL     1      -4.689  -0.518  -0.383  0.00  0.00    +0.083 C 
ATOM     14  N   UNL     1      -6.092  -0.427   0.029  0.00  0.00    -0.308 N 
ATOM     15  C   UNL     1      -6.732   0.850  -0.062  0.00  0.00    +0.237 C 
ATOM     16  O   UNL     1      -7.981   0.950   0.067  0.00  0.00    -0.271 OA
ATOM     17  C   UNL     1      -5.905   2.044  -0.309  0.00  0.00    +0.063 C 
ATOM     18  C   UNL     1      -4.567   1.956  -0.248  0.00  0.00    -0.013 C 
ATOM     19  C   UNL     1      -3.874   0.673   0.219  0.00  0.00    +0.008 C 
ATOM     20  C   UNL     1      -3.922   0.665   1.773  0.00  0.00    +0.017 C 
ATOM     21  H   UNL     1      -6.628  -1.269   0.341  0.00  0.00    +0.149 HD
ENDROOT
BRANCH   4  22
ATOM     22  C   UNL     1       3.168   0.466  -0.328  0.00  0.00    +0.217 C 
ATOM     23  O   UNL     1       3.134   1.607   0.208  0.00  0.00    -0.275 OA
ATOM     24  N   UNL     1       4.433  -0.188  -0.546  0.00  0.00    -0.310 N 
ATOM     25  H   UNL     1       4.447  -0.987  -1.221  0.00  0.00    +0.149 HD
BRANCH  24  26
ATOM     26  C   UNL     1       5.691   0.163   0.142  0.00  0.00    +0.026 C 
ATOM     27  C   UNL     1       6.168   1.562  -0.296  0.00  0.00    +0.031 C 
ATOM     28  C   UNL     1       6.777  -0.865  -0.240  0.00  0.00    +0.031 C 
ATOM     29  C   UNL     1       5.493   0.118   1.671  0.00  0.00    +0.031 C 
ENDBRANCH  24  26
ENDBRANCH   4  22
TORSDOF 2
