REMARK  Name = 
REMARK  16 active torsions:
REMARK  status: ('A' for Active; 'I' for Inactive)
REMARK    1  A    between atoms: C_1  and  C_2
REMARK    2  A    between atoms: C_2  and  C_3
REMARK    3  A    between atoms: C_3  and  C_4
REMARK    4  A    between atoms: C_4  and  C_5
REMARK    5  A    between atoms: C_5  and  C_6
REMARK    6  A    between atoms: C_6  and  C_7
REMARK    7  A    between atoms: C_7  and  C_8
REMARK    8  A    between atoms: C_8  and  C_9
REMARK    9  A    between atoms: C_12  and  C_13
REMARK   10  A    between atoms: C_13  and  C_14
REMARK   11  A    between atoms: C_14  and  C_15
REMARK   12  A    between atoms: C_15  and  N_16
REMARK   13  A    between atoms: C_15  and  C_17
REMARK   14  A    between atoms: C_15  and  C_19
REMARK   15  A    between atoms: C_17  and  O_18
REMARK   16  A    between atoms: C_19  and  O_20
REMARK                            x       y       z     vdW  Elec       q    Type
REMARK                         _______ _______ _______ _____ _____    ______ ____
ROOT
ATOM      1  C   UNL     1      -0.224   0.864   0.391  0.00  0.00    -0.047 A 
ATOM      2  C   UNL     1      -0.808   0.309   1.539  0.00  0.00    +0.004 A 
ATOM      3  C   UNL     1      -1.891  -0.568   1.427  0.00  0.00    +0.004 A 
ATOM      4  C   UNL     1      -2.405  -0.903   0.165  0.00  0.00    -0.047 A 
ATOM      5  C   UNL     1      -1.813  -0.356  -0.985  0.00  0.00    +0.004 A 
ATOM      6  C   UNL     1      -0.731   0.521  -0.873  0.00  0.00    +0.004 A 
ENDROOT
BRANCH   1   7
ATOM      7  C   UNL     1       0.958   1.792   0.514  0.00  0.00    +0.035 C 
BRANCH   7   8
ATOM      8  C   UNL     1       2.263   1.032   0.794  0.00  0.00    +0.005 C 
BRANCH   8   9
ATOM      9  C   UNL     1       2.716   0.190  -0.411  0.00  0.00    +0.000 C 
BRANCH   9  10
ATOM     10  C   UNL     1       4.002  -0.603  -0.127  0.00  0.00    +0.000 C 
BRANCH  10  11
ATOM     11  C   UNL     1       5.251   0.289  -0.078  0.00  0.00    -0.000 C 
BRANCH  11  12
ATOM     12  C   UNL     1       6.522  -0.554   0.071  0.00  0.00    -0.000 C 
BRANCH  12  14
ATOM     13  C   UNL     1       9.037  -0.502   0.279  0.00  0.00    +0.004 C 
ATOM     14  C   UNL     1       7.770   0.335   0.131  0.00  0.00    -0.003 C 
ENDBRANCH  12  14
ENDBRANCH  11  12
ENDBRANCH  10  11
ENDBRANCH   9  10
ENDBRANCH   8   9
ENDBRANCH   7   8
ENDBRANCH   1   7
BRANCH   4  15
ATOM     15  C   UNL     1      -3.585  -1.834   0.049  0.00  0.00    +0.037 C 
BRANCH  15  16
ATOM     16  C   UNL     1      -4.905  -1.208   0.549  0.00  0.00    +0.031 C 
BRANCH  16  17
ATOM     17  C   UNL     1      -5.458   0.001  -0.271  0.00  0.00    +0.063 C 
BRANCH  17  18
ATOM     18  N   UNL     1      -4.498   1.113  -0.218  0.00  0.00    -0.321 NA
ATOM     19  H   UNL     1      -4.886   1.944  -0.722  0.00  0.00    +0.119 HD
ATOM     20  H   UNL     1      -4.353   1.403   0.777  0.00  0.00    +0.119 HD
ENDBRANCH  17  18
BRANCH  17  21
ATOM     21  C   UNL     1      -6.798   0.458   0.370  0.00  0.00    +0.180 C 
BRANCH  21  22
ATOM     22  O   UNL     1      -7.771  -0.547   0.267  0.00  0.00    -0.393 OA
ATOM     23  H   UNL     1      -8.589  -0.185   0.695  0.00  0.00    +0.209 HD
ENDBRANCH  21  22
ENDBRANCH  17  21
BRANCH  17  24
ATOM     24  C   UNL     1      -5.683  -0.404  -1.754  0.00  0.00    +0.180 C 
BRANCH  24  25
ATOM     25  O   UNL     1      -6.312   0.623  -2.476  0.00  0.00    -0.393 OA
ATOM     26  H   UNL     1      -7.287   0.439  -2.455  0.00  0.00    +0.209 HD
ENDBRANCH  24  25
ENDBRANCH  17  24
ENDBRANCH  16  17
ENDBRANCH  15  16
ENDBRANCH   4  15
TORSDOF 15
