REMARK  Name = 
REMARK  7 active torsions:
REMARK  status: ('A' for Active; 'I' for Inactive)
REMARK    1  A    between atoms: C_1  and  C_2
REMARK    2  A    between atoms: C_3  and  C_24
REMARK    3  A    between atoms: C_10  and  C_11
REMARK    4  A    between atoms: C_11  and  O_13
REMARK    5  A    between atoms: O_13  and  C_14
REMARK    6  A    between atoms: C_14  and  C_15
REMARK    7  A    between atoms: C_15  and  N_16
REMARK                            x       y       z     vdW  Elec       q    Type
REMARK                         _______ _______ _______ _____ _____    ______ ____
ROOT
ATOM      1  C   UNL     1      -3.323  -2.808   0.812  0.00  0.00    +0.051 C 
ATOM      2  C   UNL     1      -2.531  -2.022  -0.206  0.00  0.00    +0.040 A 
ATOM      3  C   UNL     1      -2.203  -0.660  -0.003  0.00  0.00    +0.142 A 
ATOM      4  O   UNL     1      -1.537   0.011  -0.936  0.00  0.00    -0.454 OA
ATOM      5  C   UNL     1      -1.105  -0.537  -2.066  0.00  0.00    +0.153 A 
ATOM      6  C   UNL     1      -1.351  -1.901  -2.330  0.00  0.00    +0.065 A 
ATOM      7  C   UNL     1      -0.868  -2.474  -3.520  0.00  0.00    +0.015 A 
ATOM      8  C   UNL     1      -0.150  -1.696  -4.432  0.00  0.00    +0.002 A 
ATOM      9  C   UNL     1       0.096  -0.347  -4.167  0.00  0.00    +0.019 A 
ATOM     10  C   UNL     1      -0.371   0.238  -2.982  0.00  0.00    +0.102 A 
ATOM     11  C   UNL     1      -2.072  -2.646  -1.382  0.00  0.00    +0.196 A 
ATOM     12  O   UNL     1      -2.306  -3.870  -1.582  0.00  0.00    -0.287 OA
ENDROOT
BRANCH   3  13
ATOM     13  C   UNL     1      -2.556   0.068   1.231  0.00  0.00    +0.018 A 
ATOM     14  C   UNL     1      -3.271   1.273   1.146  0.00  0.00    +0.011 A 
ATOM     15  C   UNL     1      -3.577   1.992   2.306  0.00  0.00    +0.001 A 
ATOM     16  C   UNL     1      -3.154   1.524   3.553  0.00  0.00    +0.000 A 
ATOM     17  C   UNL     1      -2.412   0.343   3.641  0.00  0.00    +0.001 A 
ATOM     18  C   UNL     1      -2.110  -0.382   2.484  0.00  0.00    +0.011 A 
ENDBRANCH   3  13
BRANCH  10  19
ATOM     19  C   UNL     1      -0.093   1.659  -2.697  0.00  0.00    +0.343 C 
ATOM     20  O   UNL     1      -1.062   2.448  -2.549  0.00  0.00    -0.245 OA
BRANCH  19  21
ATOM     21  O   UNL     1       1.209   2.160  -2.553  0.00  0.00    -0.460 OA
BRANCH  21  22
ATOM     22  C   UNL     1       2.398   1.367  -2.489  0.00  0.00    +0.248 C 
BRANCH  22  23
ATOM     23  C   UNL     1       2.425   0.464  -1.245  0.00  0.00    +0.125 C 
BRANCH  23  24
ATOM     24  N   UNL     1       1.903   1.169  -0.052  0.00  0.00    -0.299 NA
ATOM     25  C   UNL     1       1.347   0.244   0.960  0.00  0.00    +0.084 C 
ATOM     26  C   UNL     1       2.441  -0.521   1.714  0.00  0.00    +0.015 C 
ATOM     27  C   UNL     1       3.415   0.454   2.372  0.00  0.00    +0.002 C 
ATOM     28  C   UNL     1       3.990   1.421   1.338  0.00  0.00    +0.015 C 
ATOM     29  C   UNL     1       2.868   2.119   0.547  0.00  0.00    +0.084 C 
ENDBRANCH  23  24
ENDBRANCH  22  23
ENDBRANCH  21  22
ENDBRANCH  19  21
ENDBRANCH  10  19
TORSDOF 6
