REMARK  Name = 
REMARK  9 active torsions:
REMARK  status: ('A' for Active; 'I' for Inactive)
REMARK    1  A    between atoms: C_2  and  C_5
REMARK    2  A    between atoms: C_5  and  O_6
REMARK    3  A    between atoms: O_6  and  C_7
REMARK    4  A    between atoms: C_9  and  C_10
REMARK    5  A    between atoms: N_12  and  C_13
REMARK    6  A    between atoms: C_13  and  C_14
REMARK    7  A    between atoms: C_20  and  O_21
REMARK    8  A    between atoms: O_21  and  C_22
REMARK    9  A    between atoms: C_22  and  C_23
REMARK                            x       y       z     vdW  Elec       q    Type
REMARK                         _______ _______ _______ _____ _____    ______ ____
ROOT
ATOM      1  C   UNL     1      -2.680   1.490   1.170  0.00  0.00    +0.122 A 
ATOM      2  C   UNL     1      -1.535   0.910   0.610  0.00  0.00    +0.062 A 
ATOM      3  C   UNL     1      -1.627  -0.202  -0.249  0.00  0.00    +0.082 A 
ATOM      4  C   UNL     1      -2.903  -0.725  -0.566  0.00  0.00    +0.133 A 
ATOM      5  C   UNL     1      -4.052  -0.137  -0.002  0.00  0.00    +0.050 A 
ATOM      6  C   UNL     1      -3.942   0.957   0.858  0.00  0.00    +0.049 A 
ENDROOT
BRANCH   3   7
ATOM      7  C   UNL     1      -0.396  -0.772  -0.859  0.00  0.00    +0.248 C 
ATOM      8  O   UNL     1      -0.458  -1.320  -1.994  0.00  0.00    -0.270 OA
ATOM      9  N   UNL     1       0.864  -0.718  -0.173  0.00  0.00    -0.310 N 
ATOM     10  H   UNL     1       0.903  -0.341   0.802  0.00  0.00    +0.149 HD
BRANCH   9  11
ATOM     11  C   UNL     1       2.091  -1.211  -0.802  0.00  0.00    +0.123 C 
BRANCH  11  12
ATOM     12  C   UNL     1       3.336  -0.828   0.026  0.00  0.00    +0.071 C 
ATOM     13  C   UNL     1       4.607  -1.448  -0.596  0.00  0.00    +0.020 C 
ATOM     14  C   UNL     1       5.856  -1.024   0.193  0.00  0.00    +0.003 C 
ATOM     15  C   UNL     1       5.923   0.506   0.324  0.00  0.00    +0.015 C 
ATOM     16  C   UNL     1       4.615   1.049   0.917  0.00  0.00    +0.081 C 
ATOM     17  N   UNL     1       3.452   0.646   0.105  0.00  0.00    -0.312 NA
ATOM     18  H   UNL     1       3.565   1.041  -0.861  0.00  0.00    +0.122 HD
ENDBRANCH  11  12
ENDBRANCH   9  11
ENDBRANCH   3   7
BRANCH   1  19
ATOM     19  O   UNL     1      -2.521   2.592   2.025  0.00  0.00    -0.483 OA
BRANCH  19  20
ATOM     20  C   UNL     1      -3.594   3.256   2.691  0.00  0.00    +0.342 C 
BRANCH  20  22
ATOM     21  F   UNL     1      -2.147   3.874   4.481  0.00  0.00    -0.167 F 
ATOM     22  C   UNL     1      -3.043   4.384   3.554  0.00  0.00    +0.424 C 
ATOM     23  F   UNL     1      -4.085   5.004   4.224  0.00  0.00    -0.167 F 
ATOM     24  F   UNL     1      -2.397   5.316   2.759  0.00  0.00    -0.167 F 
ENDBRANCH  20  22
ENDBRANCH  19  20
ENDBRANCH   1  19
BRANCH   4  25
ATOM     25  O   UNL     1      -2.996  -1.837  -1.421  0.00  0.00    -0.482 OA
BRANCH  25  26
ATOM     26  C   UNL     1      -4.217  -2.457  -1.821  0.00  0.00    +0.342 C 
BRANCH  26  27
ATOM     27  C   UNL     1      -3.916  -3.627  -2.748  0.00  0.00    +0.424 C 
ATOM     28  F   UNL     1      -3.142  -4.564  -2.086  0.00  0.00    -0.167 F 
ATOM     29  F   UNL     1      -5.101  -4.218  -3.148  0.00  0.00    -0.167 F 
ATOM     30  F   UNL     1      -3.233  -3.178  -3.865  0.00  0.00    -0.167 F 
ENDBRANCH  26  27
ENDBRANCH  25  26
ENDBRANCH   4  25
TORSDOF 9
