REMARK  Name = 
REMARK  4 active torsions:
REMARK  status: ('A' for Active; 'I' for Inactive)
REMARK    1  A    between atoms: O5*_1  and  C5*_2
REMARK    2  A    between atoms: C5*_2  and  C4*_3
REMARK    3  A    between atoms: C1*_5  and  N_9
REMARK    4  A    between atoms: C3*_7  and  O3*_8
REMARK                            x       y       z     vdW  Elec       q    Type
REMARK                         _______ _______ _______ _____ _____    ______ ____
ROOT
ATOM      1  C4* UNL     1      -2.090   0.280   0.197  0.00  0.00    +0.175 C 
ATOM      2  O4* UNL     1      -0.860   0.941   0.372  0.00  0.00    -0.348 OA
ATOM      3  C1* UNL     1      -0.078   0.646  -0.765  0.00  0.00    +0.226 C 
ATOM      4  C2* UNL     1      -0.622  -0.613  -1.444  0.00  0.00    +0.088 C 
ATOM      5  C3* UNL     1      -1.829  -0.982  -0.619  0.00  0.00    +0.150 C 
ENDROOT
BRANCH   3   6
ATOM      6  N   UNL     1       1.340   0.478  -0.384  0.00  0.00    -0.271 N 
ATOM      7  C   UNL     1       2.302   1.104  -1.128  0.00  0.00    +0.137 A 
ATOM      8  C   UNL     1       3.651   0.959  -0.812  0.00  0.00    +0.204 A 
ATOM      9  F   UNL     1       4.600   1.587  -1.550  0.00  0.00    -0.198 F 
ATOM     10  C   UNL     1       4.000   0.156   0.270  0.00  0.00    +0.289 A 
ATOM     11  O   UNL     1       5.212   0.006   0.581  0.00  0.00    -0.265 OA
ATOM     12  N   UNL     1       3.030  -0.469   0.987  0.00  0.00    -0.273 N 
ATOM     13  C   UNL     1       1.714  -0.322   0.670  0.00  0.00    +0.331 A 
ATOM     14  O   UNL     1       0.847  -0.933   1.353  0.00  0.00    -0.246 OA
ATOM     15  H   UNL     1       3.300  -1.076   1.795  0.00  0.00    +0.174 HD
ENDBRANCH   3   6
BRANCH   5  16
ATOM     16  O3* UNL     1      -2.920  -1.293  -1.446  0.00  0.00    -0.389 OA
ATOM     17  H3* UNL     1      -3.602  -1.717  -0.863  0.00  0.00    +0.210 HD
ENDBRANCH   5  16
BRANCH   1  18
ATOM     18  C5* UNL     1      -2.708  -0.038   1.561  0.00  0.00    +0.190 C 
BRANCH  18  19
ATOM     19  O5* UNL     1      -2.963   1.154   2.251  0.00  0.00    -0.392 OA
ATOM     20  H5* UNL     1      -3.357   0.889   3.122  0.00  0.00    +0.210 HD
ENDBRANCH  18  19
ENDBRANCH   1  18
TORSDOF 4
