REMARK  Name = 
REMARK  6 active torsions:
REMARK  status: ('A' for Active; 'I' for Inactive)
REMARK    1  A    between atoms: O_1  and  C_2
REMARK    2  A    between atoms: C_2  and  C_3
REMARK    3  A    between atoms: C_2  and  C_9
REMARK    4  A    between atoms: C_2  and  C_15
REMARK    5  A    between atoms: C_3  and  N_4
REMARK    6  A    between atoms: C_9  and  N_10
REMARK                            x       y       z     vdW  Elec       q    Type
REMARK                         _______ _______ _______ _____ _____    ______ ____
ROOT
ATOM      1  C   UNL     1      -0.220  -0.776  -0.883  0.00  0.00    +0.132 C 
ENDROOT
BRANCH   1   2
ATOM      2  C   UNL     1      -0.236   0.707  -0.458  0.00  0.00    +0.023 A 
ATOM      3  C   UNL     1       0.279   1.167   0.784  0.00  0.00    +0.132 A 
ATOM      4  F   UNL     1       0.828   0.325   1.691  0.00  0.00    -0.205 F 
ATOM      5  C   UNL     1       0.265   2.530   1.099  0.00  0.00    +0.077 A 
ATOM      6  C   UNL     1      -0.231   3.462   0.189  0.00  0.00    +0.126 A 
ATOM      7  F   UNL     1      -0.235   4.781   0.503  0.00  0.00    -0.205 F 
ATOM      8  C   UNL     1      -0.702   3.038  -1.050  0.00  0.00    +0.039 A 
ATOM      9  C   UNL     1      -0.695   1.680  -1.377  0.00  0.00    +0.012 A 
ENDBRANCH   1   2
BRANCH   1  10
ATOM     10  O   UNL     1      -1.210  -0.958  -1.874  0.00  0.00    -0.380 OA
ATOM     11  H   UNL     1      -1.158  -1.891  -2.213  0.00  0.00    +0.211 HD
ENDBRANCH   1  10
BRANCH   1  12
ATOM     12  C   UNL     1       1.158  -1.121  -1.519  0.00  0.00    +0.186 C 
BRANCH  12  13
ATOM     13  N   UNL     1       2.285  -0.866  -0.623  0.00  0.00    -0.249 N 
ATOM     14  C   UNL     1       3.053   0.236  -0.586  0.00  0.00    +0.219 A 
ATOM     15  N   UNL     1       4.022   0.122   0.342  0.00  0.00    -0.223 NA
ATOM     16  C   UNL     1       3.795  -1.110   0.850  0.00  0.00    +0.244 A 
ATOM     17  N   UNL     1       2.746  -1.724   0.268  0.00  0.00    -0.158 NA
ENDBRANCH  12  13
ENDBRANCH   1  12
BRANCH   1  18
ATOM     18  C   UNL     1      -0.555  -1.756   0.281  0.00  0.00    +0.186 C 
BRANCH  18  19
ATOM     19  N   UNL     1      -1.831  -1.419   0.913  0.00  0.00    -0.249 N 
ATOM     20  C   UNL     1      -3.060  -1.729   0.467  0.00  0.00    +0.219 A 
ATOM     21  N   UNL     1      -4.011  -1.236   1.284  0.00  0.00    -0.223 NA
ATOM     22  C   UNL     1      -3.283  -0.616   2.238  0.00  0.00    +0.244 A 
ATOM     23  N   UNL     1      -1.957  -0.718   2.024  0.00  0.00    -0.158 NA
ENDBRANCH  18  19
ENDBRANCH   1  18
TORSDOF 6
