REMARK  Name = 
REMARK  8 active torsions:
REMARK  status: ('A' for Active; 'I' for Inactive)
REMARK    1  A    between atoms: C_3  and  C_4
REMARK    2  A    between atoms: C_3  and  C_5
REMARK    3  A    between atoms: CA_6  and  C_28
REMARK    4  A    between atoms: CA_10  and  N_11
REMARK    5  A    between atoms: C_12  and  C_14
REMARK    6  A    between atoms: C_15  and  C_16
REMARK    7  A    between atoms: C_19  and  C_20
REMARK    8  A    between atoms: C_28  and  O_29
REMARK                            x       y       z     vdW  Elec       q    Type
REMARK                         _______ _______ _______ _____ _____    ______ ____
ROOT
ATOM      1  N   UNL     1       0.545   1.343   1.009  0.00  0.00    -0.298 N 
ATOM      2  C   UNL     1       1.183   2.364   0.227  0.00  0.00    +0.250 C 
ATOM      3  O   UNL     1       0.526   3.376  -0.140  0.00  0.00    -0.270 OA
ATOM      4  H   UNL     1       1.116   0.540   1.357  0.00  0.00    +0.150 HD
ENDROOT
BRANCH   1  14
ATOM      5  C   UNL     1      -1.869   1.072   0.674  0.00  0.00    +0.165 C 
ATOM      6  S   UNL     1      -1.447   0.241  -0.897  0.00  0.00    -0.127 S 
ATOM      7  C   UNL     1      -2.595  -1.163  -0.504  0.00  0.00    +0.042 C 
ATOM      8  C   UNL     1      -3.967  -0.818  -1.119  0.00  0.00    +0.025 C 
ATOM      9  C   UNL     1      -2.056  -2.448  -1.149  0.00  0.00    +0.025 C 
ATOM     10  CA  UNL     1      -2.634  -1.302   1.052  0.00  0.00    +0.201 C 
ATOM     11  N   UNL     1      -2.233  -0.006   1.540  0.00  0.00    -0.271 N 
ATOM     12  C   UNL     1      -1.198   0.448   2.496  0.00  0.00    +0.240 C 
ATOM     13  O   UNL     1      -0.780   0.047   3.614  0.00  0.00    -0.273 OA
ATOM     14  CA  UNL     1      -0.808   1.532   1.541  0.00  0.00    +0.190 C 
BRANCH  10  15
ATOM     15  C   UNL     1      -3.962  -1.713   1.628  0.00  0.00    +0.327 C 
ATOM     16  OXT UNL     1      -4.794  -0.846   2.009  0.00  0.00    -0.249 OA
BRANCH  15  17
ATOM     17  O   UNL     1      -4.288  -3.063   1.700  0.00  0.00    -0.479 OA
ATOM     18  H   UNL     1      -5.183  -3.363   2.067  0.00  0.00    +0.295 HD
ENDBRANCH  15  17
ENDBRANCH  10  15
ENDBRANCH   1  14
BRANCH   2  19
ATOM     19  C   UNL     1       2.619   2.276  -0.104  0.00  0.00    +0.106 A 
ATOM     20  C   UNL     1       3.526   3.317  -0.188  0.00  0.00    +0.147 A 
ATOM     21  C   UNL     1       3.247   4.775  -0.025  0.00  0.00    +0.090 C 
ATOM     22  O   UNL     1       4.716   2.820  -0.432  0.00  0.00    -0.359 OA
ATOM     23  N   UNL     1       4.676   1.521  -0.521  0.00  0.00    -0.077 NA
ATOM     24  C   UNL     1       3.397   1.149  -0.321  0.00  0.00    +0.130 A 
BRANCH  24  25
ATOM     25  C   UNL     1       2.930  -0.241  -0.465  0.00  0.00    +0.058 A 
ATOM     26  C   UNL     1       2.005  -0.563  -1.473  0.00  0.00    +0.134 A 
ATOM     27  F   UNL     1       1.545   0.393  -2.319  0.00  0.00    -0.205 F 
ATOM     28  C   UNL     1       1.572  -1.882  -1.635  0.00  0.00    +0.039 A 
ATOM     29  C   UNL     1       2.049  -2.885  -0.790  0.00  0.00    +0.004 A 
ATOM     30  C   UNL     1       2.971  -2.576   0.212  0.00  0.00    +0.021 A 
ATOM     31  C   UNL     1       3.422  -1.261   0.376  0.00  0.00    +0.053 A 
ATOM     32 CL   UNL     1       4.568  -0.916   1.667  0.00  0.00    -0.083 Cl
ENDBRANCH  24  25
ENDBRANCH   2  19
TORSDOF 5
