REMARK  Name = 
REMARK  1 active torsions:
REMARK  status: ('A' for Active; 'I' for Inactive)
REMARK    1  A    between atoms: N_1  and  C_2
REMARK                            x       y       z     vdW  Elec       q    Type
REMARK                         _______ _______ _______ _____ _____    ______ ____
ROOT
ATOM      1  C   UNL     1      -0.589  -0.281   0.000  0.00  0.00    +0.135 A 
ATOM      2  C   UNL     1      -0.454   1.101  -0.185  0.00  0.00    +0.179 A 
ATOM      3  F   UNL     1      -1.538   1.895  -0.370  0.00  0.00    -0.200 F 
ATOM      4  C   UNL     1       0.825   1.654  -0.178  0.00  0.00    +0.158 A 
ATOM      5  N   UNL     1       1.907   0.855   0.007  0.00  0.00    -0.199 NA
ATOM      6  C   UNL     1       1.765  -0.484   0.186  0.00  0.00    +0.347 A 
ATOM      7  O   UNL     1       2.785  -1.203   0.355  0.00  0.00    -0.245 OA
ATOM      8  N   UNL     1       0.525  -1.046   0.182  0.00  0.00    -0.292 N 
ATOM      9  H   UNL     1       0.428  -2.077   0.321  0.00  0.00    +0.172 HD
ENDROOT
BRANCH   1  10
ATOM     10  N   UNL     1      -1.883  -0.891  -0.001  0.00  0.00    -0.342 N 
ATOM     11  H   UNL     1      -1.983  -1.921   0.138  0.00  0.00    +0.144 HD
ATOM     12  H   UNL     1      -2.748  -0.323  -0.138  0.00  0.00    +0.144 HD
ENDBRANCH   1  10
TORSDOF 1
