REMARK  Name = 
REMARK  2 active torsions:
REMARK  status: ('A' for Active; 'I' for Inactive)
REMARK    1  A    between atoms: C_1  and  N_2
REMARK    2  A    between atoms: C_10  and  C_15
REMARK                            x       y       z     vdW  Elec       q    Type
REMARK                         _______ _______ _______ _____ _____    ______ ____
ROOT
ATOM      1  C   UNL     1      -3.148  -1.578   0.974  0.00  0.00    +0.138 C 
ATOM      2  N   UNL     1      -2.305  -0.975  -0.063  0.00  0.00    -0.272 N 
ATOM      3  C   UNL     1      -1.804   0.369   0.115  0.00  0.00    +0.045 A 
ATOM      4  C   UNL     1      -0.464   0.709  -0.205  0.00  0.00    +0.023 A 
ATOM      5  C   UNL     1      -0.024   2.031  -0.005  0.00  0.00    +0.032 A 
ATOM      6  C   UNL     1      -0.888   3.002   0.506  0.00  0.00    +0.042 A 
ATOM      7 CL   UNL     1      -0.318   4.643   0.748  0.00  0.00    -0.084 Cl
ATOM      8  C   UNL     1      -2.203   2.666   0.822  0.00  0.00    +0.022 A 
ATOM      9  C   UNL     1      -2.659   1.362   0.628  0.00  0.00    +0.025 A 
ATOM     10  C   UNL     1       0.505  -0.294  -0.736  0.00  0.00    +0.078 C 
ATOM     11  N   UNL     1       0.173  -1.114  -1.693  0.00  0.00    -0.273 NA
ATOM     12  C   UNL     1      -1.140  -1.176  -2.322  0.00  0.00    +0.238 C 
ATOM     13  C   UNL     1      -2.143  -1.655  -1.322  0.00  0.00    +0.241 C 
ATOM     14  O   UNL     1      -2.840  -2.673  -1.589  0.00  0.00    -0.273 OA
ENDROOT
BRANCH  10  15
ATOM     15  C   UNL     1       1.887  -0.358  -0.191  0.00  0.00    +0.036 A 
ATOM     16  C   UNL     1       2.120  -0.096   1.173  0.00  0.00    +0.013 A 
ATOM     17  C   UNL     1       3.414  -0.163   1.698  0.00  0.00    +0.001 A 
ATOM     18  C   UNL     1       4.488  -0.497   0.872  0.00  0.00    +0.003 A 
ATOM     19  C   UNL     1       4.272  -0.764  -0.481  0.00  0.00    +0.039 A 
ATOM     20  C   UNL     1       2.980  -0.699  -1.015  0.00  0.00    +0.133 A 
ATOM     21  F   UNL     1       2.808  -0.942  -2.340  0.00  0.00    -0.205 F 
ENDBRANCH  10  15
TORSDOF 1
