REMARK  Name = 
REMARK  7 active torsions:
REMARK  status: ('A' for Active; 'I' for Inactive)
REMARK    1  A    between atoms: C_4  and  O_5
REMARK    2  A    between atoms: C_4  and  C_6
REMARK    3  A    between atoms: C_6  and  C_8
REMARK    4  A    between atoms: C_8  and  O_9
REMARK    5  A    between atoms: C_10  and  C_11
REMARK    6  A    between atoms: C_13  and  O_14
REMARK    7  A    between atoms: C_26  and  C_27
REMARK                            x       y       z     vdW  Elec       q    Type
REMARK                         _______ _______ _______ _____ _____    ______ ____
ROOT
ATOM      1  C   UNL     1      -0.796  -0.949   1.059  0.00  0.00    +0.004 C 
ATOM      2  C   UNL     1      -1.459  -2.218   1.576  0.00  0.00    +0.008 C 
ATOM      3  C   UNL     1      -2.959  -1.873   1.621  0.00  0.00    +0.043 C 
ATOM      4  C   UNL     1      -3.127  -0.463   0.960  0.00  0.00    +0.131 C 
ATOM      5  C   UNL     1      -1.827  -0.334   0.099  0.00  0.00    +0.009 C 
ATOM      6  C   UNL     1      -1.997  -1.149  -1.230  0.00  0.00    +0.015 C 
ATOM      7  C   UNL     1      -1.370   1.115  -0.225  0.00  0.00    +0.044 C 
ATOM      8  C   UNL     1       0.082   1.187  -0.785  0.00  0.00    +0.153 C 
ATOM      9  C   UNL     1       1.121   0.420   0.110  0.00  0.00    +0.149 C 
ATOM     10  F   UNL     1       1.155   1.118   1.311  0.00  0.00    -0.238 F 
ATOM     11  C   UNL     1       0.627  -1.039   0.459  0.00  0.00    +0.034 C 
ATOM     12  C   UNL     1       1.595  -1.736   1.450  0.00  0.00    +0.011 C 
ATOM     13  C   UNL     1       3.038  -1.744   0.934  0.00  0.00    +0.032 C 
ATOM     14  C   UNL     1       3.446  -0.330   0.604  0.00  0.00    -0.057 C 
ATOM     15  C   UNL     1       4.294   0.310   1.431  0.00  0.00    +0.046 C 
ATOM     16  C   UNL     1       4.476   1.766   1.387  0.00  0.00    +0.156 C 
ATOM     17  O   UNL     1       5.333   2.311   2.132  0.00  0.00    -0.293 OA
ATOM     18  C   UNL     1       3.590   2.611   0.530  0.00  0.00    +0.080 C 
ATOM     19  C   UNL     1       3.188   1.838  -0.725  0.00  0.00    +0.022 C 
ATOM     20  C   UNL     1       2.609   0.405  -0.451  0.00  0.00    +0.026 C 
ATOM     21  C   UNL     1       2.748  -0.365  -1.798  0.00  0.00    +0.019 C 
ENDROOT
BRANCH   4  22
ATOM     22  O   UNL     1      -3.117   0.504   1.988  0.00  0.00    -0.380 OA
ATOM     23  H   UNL     1      -3.942   0.382   2.529  0.00  0.00    +0.211 HD
ENDBRANCH   4  22
BRANCH   4  24
ATOM     24  C   UNL     1      -4.421  -0.323   0.138  0.00  0.00    +0.190 C 
ATOM     25  O   UNL     1      -5.042  -1.324  -0.190  0.00  0.00    -0.292 OA
BRANCH  24  26
ATOM     26  C   UNL     1      -4.948   1.005  -0.354  0.00  0.00    +0.233 C 
BRANCH  26  27
ATOM     27  O   UNL     1      -4.296   2.088   0.248  0.00  0.00    -0.387 OA
ATOM     28  H   UNL     1      -4.684   2.905  -0.159  0.00  0.00    +0.210 HD
ENDBRANCH  26  27
ENDBRANCH  24  26
ENDBRANCH   4  24
BRANCH   8  29
ATOM     29  O   UNL     1       0.113   0.734  -2.111  0.00  0.00    -0.389 OA
ATOM     30  H   UNL     1      -0.309   1.438  -2.670  0.00  0.00    +0.210 HD
ENDBRANCH   8  29
TORSDOF 5
