REMARK  Name = 
REMARK  9 active torsions:
REMARK  status: ('A' for Active; 'I' for Inactive)
REMARK    1  A    between atoms: N_1  and  C_2
REMARK    2  A    between atoms: N_6  and  C_7
REMARK    3  A    between atoms: C_9  and  C_10
REMARK    4  A    between atoms: C_10  and  O_11
REMARK    5  A    between atoms: O_11  and  P_12
REMARK    6  A    between atoms: P_12  and  O_13
REMARK    7  A    between atoms: P_12  and  O_14
REMARK    8  A    between atoms: C_16  and  O_17
REMARK    9  A    between atoms: C_18  and  O_19
REMARK                            x       y       z     vdW  Elec       q    Type
REMARK                         _______ _______ _______ _____ _____    ______ ____
ROOT
ATOM      1  C   UNL     1      -0.360   0.708  -0.805  0.00  0.00    +0.253 C 
ATOM      2  O   UNL     1       0.860   0.066  -1.088  0.00  0.00    -0.346 OA
ATOM      3  C   UNL     1       1.892   0.987  -0.797  0.00  0.00    +0.178 C 
ATOM      4  C   UNL     1       1.329   2.139   0.055  0.00  0.00    +0.178 C 
ATOM      5  C   UNL     1      -0.111   1.732   0.297  0.00  0.00    +0.195 C 
ENDROOT
BRANCH   1  10
ATOM      6  C   UNL     1      -4.686  -1.287   0.164  0.00  0.00    +0.150 A 
ATOM      7  C   UNL     1      -3.300  -1.224   0.068  0.00  0.00    +0.147 A 
ATOM      8  N   UNL     1      -2.374  -2.130   0.434  0.00  0.00    -0.231 NA
ATOM      9  C   UNL     1      -1.204  -1.505   0.122  0.00  0.00    +0.203 A 
ATOM     10  N   UNL     1      -1.380  -0.271  -0.420  0.00  0.00    -0.285 N 
ATOM     11  C   UNL     1      -2.709  -0.116  -0.434  0.00  0.00    +0.170 A 
ATOM     12  N   UNL     1      -3.413   0.963  -0.854  0.00  0.00    -0.182 NA
ATOM     13  C   UNL     1      -4.776   0.912  -0.767  0.00  0.00    +0.313 A 
ATOM     14  F   UNL     1      -5.517   1.969  -1.178  0.00  0.00    -0.161 F 
ATOM     15  N   UNL     1      -5.400  -0.202  -0.263  0.00  0.00    -0.185 NA
BRANCH   6  16
ATOM     16  N   UNL     1      -5.352  -2.434   0.691  0.00  0.00    -0.341 N 
ATOM     17  H   UNL     1      -6.394  -2.453   0.753  0.00  0.00    +0.144 HD
ATOM     18  H   UNL     1      -4.813  -3.265   1.020  0.00  0.00    +0.144 HD
ENDBRANCH   6  16
ENDBRANCH   1  10
BRANCH   4  19
ATOM     19  O   UNL     1       1.382   3.338  -0.676  0.00  0.00    -0.386 OA
ATOM     20  H   UNL     1       1.200   4.072  -0.032  0.00  0.00    +0.210 HD
ENDBRANCH   4  19
BRANCH   5  21
ATOM     21  O   UNL     1      -0.276   1.184   1.585  0.00  0.00    -0.385 OA
ATOM     22  H   UNL     1       0.346   0.416   1.678  0.00  0.00    +0.210 HD
ENDBRANCH   5  21
BRANCH   3  23
ATOM     23  C   UNL     1       3.033   0.255  -0.083  0.00  0.00    +0.206 C 
BRANCH  23  24
ATOM     24  O   UNL     1       3.522  -0.765  -0.921  0.00  0.00    -0.284 OA
BRANCH  24  25
ATOM     25  P   UNL     1       4.720  -1.640  -0.076  0.00  0.00    +0.472 P 
ATOM     26  O   UNL     1       5.341  -2.638  -1.026  0.00  0.00    -0.228 OA
BRANCH  25  27
ATOM     27  O   UNL     1       4.023  -2.487   1.216  0.00  0.00    -0.303 OA
ATOM     28  H   UNL     1       3.979  -1.841   1.964  0.00  0.00    +0.222 HD
ENDBRANCH  25  27
BRANCH  25  29
ATOM     29  O   UNL     1       5.937  -0.600   0.484  0.00  0.00    -0.303 OA
ATOM     30  H   UNL     1       5.598  -0.233   1.338  0.00  0.00    +0.222 HD
ENDBRANCH  25  29
ENDBRANCH  24  25
ENDBRANCH  23  24
ENDBRANCH   3  23
TORSDOF 9
