REMARK  Name = 
REMARK  5 active torsions:
REMARK  status: ('A' for Active; 'I' for Inactive)
REMARK    1  A    between atoms: C_1  and  C_2
REMARK    2  A    between atoms: C_2  and  O_3
REMARK    3  A    between atoms: O_3  and  C_4
REMARK    4  A    between atoms: C_4  and  C_6
REMARK    5  A    between atoms: N_9  and  C_10
REMARK                            x       y       z     vdW  Elec       q    Type
REMARK                         _______ _______ _______ _____ _____    ______ ____
ROOT
ATOM      1  C   UNL     1       1.401   0.116   0.082  0.00  0.00    +0.170 A 
ATOM      2  C   UNL     1       0.062   0.181  -0.288  0.00  0.00    +0.075 A 
ATOM      3  C   UNL     1      -0.726  -0.721  -1.180  0.00  0.00    +0.163 C 
ATOM      4  N   UNL     1      -1.697  -1.443  -0.360  0.00  0.00    -0.295 N 
ATOM      5  C   UNL     1      -1.567  -2.892  -0.177  0.00  0.00    +0.132 C 
ATOM      6  C   UNL     1      -2.781  -0.742   0.290  0.00  0.00    +0.249 C 
ATOM      7  O   UNL     1      -3.644  -1.407   0.927  0.00  0.00    -0.270 OA
ATOM      8  C   UNL     1      -2.952   0.738   0.210  0.00  0.00    +0.063 A 
ATOM      9  C   UNL     1      -1.866   1.658   0.276  0.00  0.00    +0.060 A 
ATOM     10  C   UNL     1      -2.134   3.039   0.267  0.00  0.00    +0.030 A 
ATOM     11  C   UNL     1      -3.443   3.513   0.191  0.00  0.00    +0.040 A 
ATOM     12  C   UNL     1      -4.507   2.617   0.129  0.00  0.00    +0.124 A 
ATOM     13  F   UNL     1      -5.779   3.081   0.058  0.00  0.00    -0.205 F 
ATOM     14  C   UNL     1      -4.265   1.243   0.144  0.00  0.00    +0.053 A 
ATOM     15  N   UNL     1      -0.498   1.216   0.359  0.00  0.00    -0.300 N 
ATOM     16  C   UNL     1       0.498   1.781   1.072  0.00  0.00    +0.205 A 
ATOM     17  N   UNL     1       1.671   1.130   0.930  0.00  0.00    -0.228 NA
ENDROOT
BRANCH   1  18
ATOM     18  C   UNL     1       2.422  -0.873  -0.306  0.00  0.00    +0.360 C 
ATOM     19  O   UNL     1       2.120  -1.883  -0.995  0.00  0.00    -0.243 OA
BRANCH  18  20
ATOM     20  O   UNL     1       3.740  -0.683   0.120  0.00  0.00    -0.460 OA
BRANCH  20  22
ATOM     21  C   UNL     1       6.092  -1.098   0.412  0.00  0.00    +0.048 C 
ATOM     22  C   UNL     1       4.790  -1.591  -0.198  0.00  0.00    +0.229 C 
ENDBRANCH  20  22
ENDBRANCH  18  20
ENDBRANCH   1  18
TORSDOF 3
