REMARK  Name = 
REMARK  13 active torsions:
REMARK  status: ('A' for Active; 'I' for Inactive)
REMARK    1  A    between atoms: C_1  and  C_2
REMARK    2  A    between atoms: C_15  and  C_16
REMARK    3  A    between atoms: C_19  and  O_20
REMARK    4  A    between atoms: C_22  and  C_23
REMARK    5  A    between atoms: C_24  and  O_25
REMARK    6  A    between atoms: C_24  and  C_26
REMARK    7  A    between atoms: C_26  and  C_28
REMARK    8  A    between atoms: C_28  and  O_29
REMARK    9  A    between atoms: O_29  and  C_30
REMARK   10  A    between atoms: C_30  and  C_32
REMARK   11  A    between atoms: C_32  and  C_33
REMARK   12  A    between atoms: C_32  and  C_34
REMARK   13  A    between atoms: C_32  and  C_35
REMARK                            x       y       z     vdW  Elec       q    Type
REMARK                         _______ _______ _______ _____ _____    ______ ____
ROOT
ATOM      1  C   UNL     1       0.705  -2.133  -3.525  0.00  0.00    +0.011 C 
ATOM      2  C   UNL     1       0.478  -2.373  -2.028  0.00  0.00    +0.026 C 
ATOM      3  C   UNL     1      -1.033  -2.499  -1.693  0.00  0.00    +0.011 C 
ATOM      4  C   UNL     1      -1.277  -1.273  -0.842  0.00  0.00    +0.005 C 
ATOM      5  C   UNL     1      -2.542  -1.044   0.003  0.00  0.00    +0.037 C 
ATOM      6  C   UNL     1      -3.823  -1.640  -0.577  0.00  0.00    +0.048 C 
ATOM      7  C   UNL     1      -4.958  -1.495   0.447  0.00  0.00    +0.194 C 
ATOM      8  F   UNL     1      -6.137  -1.899  -0.160  0.00  0.00    -0.241 F 
ATOM      9  C   UNL     1      -5.083  -0.078   0.999  0.00  0.00    -0.020 C 
ATOM     10  C   UNL     1      -6.290   0.334   1.435  0.00  0.00    +0.054 C 
ATOM     11  C   UNL     1      -6.482   1.717   1.884  0.00  0.00    +0.179 C 
ATOM     12  O   UNL     1      -7.582   2.084   2.375  0.00  0.00    -0.288 OA
ATOM     13  C   UNL     1      -5.423   2.695   1.650  0.00  0.00    +0.047 C 
ATOM     14  C   UNL     1      -4.218   2.271   1.265  0.00  0.00    -0.009 C 
ATOM     15  C   UNL     1      -3.825   0.784   1.302  0.00  0.00    +0.047 C 
ATOM     16  C   UNL     1      -3.357   0.446   2.742  0.00  0.00    +0.023 C 
ATOM     17  C   UNL     1      -2.697   0.501   0.229  0.00  0.00    +0.153 C 
ATOM     18  F   UNL     1      -3.182   1.038  -0.964  0.00  0.00    -0.238 F 
ATOM     19  C   UNL     1      -1.266   1.186   0.435  0.00  0.00    +0.154 C 
ATOM     20  C   UNL     1      -0.097   0.230   0.824  0.00  0.00    +0.044 C 
ATOM     21  C   UNL     1      -0.010  -1.118   0.019  0.00  0.00    +0.010 C 
ATOM     22  C   UNL     1       0.178  -2.297   1.051  0.00  0.00    +0.015 C 
ATOM     23  C   UNL     1       1.075  -1.226  -1.098  0.00  0.00    +0.135 C 
ENDROOT
BRANCH  19  24
ATOM     24  O   UNL     1      -1.304   2.252   1.354  0.00  0.00    -0.389 OA
ATOM     25  H   UNL     1      -0.615   2.913   1.067  0.00  0.00    +0.210 HD
ENDBRANCH  19  24
BRANCH  23  26
ATOM     26  O   UNL     1       1.124   0.008  -1.787  0.00  0.00    -0.380 OA
ATOM     27  H   UNL     1       1.886  -0.008  -2.414  0.00  0.00    +0.211 HD
ENDBRANCH  23  26
BRANCH  23  28
ATOM     28  C   UNL     1       2.486  -1.560  -0.576  0.00  0.00    +0.202 C 
ATOM     29  O   UNL     1       3.066  -2.557  -0.990  0.00  0.00    -0.291 OA
BRANCH  28  30
ATOM     30  C   UNL     1       3.220  -0.675   0.405  0.00  0.00    +0.309 C 
BRANCH  30  31
ATOM     31  O   UNL     1       3.406   0.646  -0.096  0.00  0.00    -0.456 OA
BRANCH  31  32
ATOM     32  C   UNL     1       4.464   0.987  -0.942  0.00  0.00    +0.313 C 
ATOM     33  O   UNL     1       4.302   0.883  -2.188  0.00  0.00    -0.250 OA
BRANCH  32  34
ATOM     34  C   UNL     1       5.670   1.721  -0.387  0.00  0.00    +0.059 C 
ATOM     35  C   UNL     1       6.003   1.208   1.032  0.00  0.00    +0.022 C 
ATOM     36  C   UNL     1       6.896   1.502  -1.299  0.00  0.00    +0.022 C 
ATOM     37  C   UNL     1       5.339   3.222  -0.320  0.00  0.00    +0.022 C 
ENDBRANCH  32  34
ENDBRANCH  31  32
ENDBRANCH  30  31
ENDBRANCH  28  30
ENDBRANCH  23  28
TORSDOF 7
