REMARK  Name = 
REMARK  3 active torsions:
REMARK  status: ('A' for Active; 'I' for Inactive)
REMARK    1  A    between atoms: C_1  and  N_2
REMARK    2  A    between atoms: C_6  and  N_9
REMARK    3  A    between atoms: C_12  and  C_17
REMARK                            x       y       z     vdW  Elec       q    Type
REMARK                         _______ _______ _______ _____ _____    ______ ____
ROOT
ATOM      1  C   UNL     1      -3.019  -1.454   1.730  0.00  0.00    +0.138 C 
ATOM      2  N   UNL     1      -2.221  -1.296   0.509  0.00  0.00    -0.272 N 
ATOM      3  C   UNL     1      -1.798   0.022   0.096  0.00  0.00    +0.045 A 
ATOM      4  C   UNL     1      -0.484   0.264  -0.376  0.00  0.00    +0.024 A 
ATOM      5  C   UNL     1      -0.118   1.568  -0.758  0.00  0.00    +0.044 A 
ATOM      6  C   UNL     1      -1.030   2.633  -0.676  0.00  0.00    +0.127 A 
ATOM      7  C   UNL     1      -2.327   2.380  -0.206  0.00  0.00    +0.034 A 
ATOM      8  C   UNL     1      -2.705   1.093   0.174  0.00  0.00    +0.026 A 
ATOM      9  C   UNL     1       0.536  -0.820  -0.468  0.00  0.00    +0.078 C 
ATOM     10  N   UNL     1       0.249  -1.976  -0.995  0.00  0.00    -0.273 NA
ATOM     11  C   UNL     1      -1.064  -2.363  -1.498  0.00  0.00    +0.238 C 
ATOM     12  C   UNL     1      -2.028  -2.432  -0.356  0.00  0.00    +0.241 C 
ATOM     13  O   UNL     1      -2.662  -3.503  -0.151  0.00  0.00    -0.273 OA
ENDROOT
BRANCH   9  14
ATOM     14  C   UNL     1       1.930  -0.581  -0.014  0.00  0.00    +0.036 A 
ATOM     15  C   UNL     1       3.006  -1.137  -0.731  0.00  0.00    +0.013 A 
ATOM     16  C   UNL     1       4.323  -0.917  -0.318  0.00  0.00    +0.001 A 
ATOM     17  C   UNL     1       4.582  -0.148   0.817  0.00  0.00    +0.003 A 
ATOM     18  C   UNL     1       3.524   0.399   1.546  0.00  0.00    +0.039 A 
ATOM     19  C   UNL     1       2.203   0.184   1.140  0.00  0.00    +0.133 A 
ATOM     20  F   UNL     1       1.196   0.695   1.893  0.00  0.00    -0.205 F 
ENDBRANCH   9  14
BRANCH   6  21
ATOM     21  N   UNL     1      -0.637   3.961  -1.069  0.00  0.00    +0.056 N 
ATOM     22  O   UNL     1       0.638   4.208  -1.524  0.00  0.00    -0.126 OA
ATOM     23  O   UNL     1      -1.445   4.910  -1.002  0.00  0.00    -0.126 OA
ENDBRANCH   6  21
TORSDOF 2
