REMARK  Name = 
REMARK  6 active torsions:
REMARK  status: ('A' for Active; 'I' for Inactive)
REMARK    1  A    between atoms: C_5  and  C_8
REMARK    2  A    between atoms: C_8  and  N_9
REMARK    3  A    between atoms: C_8  and  C_24
REMARK    4  A    between atoms: N_12  and  C_13
REMARK    5  A    between atoms: C_13  and  C_14
REMARK    6  A    between atoms: C_15  and  C_16
REMARK                            x       y       z     vdW  Elec       q    Type
REMARK                         _______ _______ _______ _____ _____    ______ ____
ROOT
ATOM      1  C   UNL     1      -2.375   0.032   0.081  0.00  0.00    +0.117 C 
ENDROOT
BRANCH   1   6
ATOM      2  F   UNL     1      -4.857   4.974  -1.246  0.00  0.00    -0.205 F 
ATOM      3  C   UNL     1      -4.259   3.797  -0.936  0.00  0.00    +0.123 A 
ATOM      4  C   UNL     1      -4.144   2.796  -1.904  0.00  0.00    +0.038 A 
ATOM      5  C   UNL     1      -3.529   1.582  -1.587  0.00  0.00    +0.008 A 
ATOM      6  C   UNL     1      -3.011   1.360  -0.295  0.00  0.00    -0.026 A 
ATOM      7  C   UNL     1      -3.146   2.371   0.674  0.00  0.00    +0.008 A 
ATOM      8  C   UNL     1      -3.762   3.584   0.352  0.00  0.00    +0.038 A 
ENDBRANCH   1   6
BRANCH   1   9
ATOM      9  C   UNL     1      -3.501  -0.934   0.416  0.00  0.00    -0.026 A 
ATOM     10  C   UNL     1      -3.839  -1.177   1.760  0.00  0.00    +0.008 A 
ATOM     11  C   UNL     1      -4.894  -2.037   2.080  0.00  0.00    +0.038 A 
ATOM     12  C   UNL     1      -5.628  -2.655   1.064  0.00  0.00    +0.123 A 
ATOM     13  F   UNL     1      -6.651  -3.488   1.377  0.00  0.00    -0.205 F 
ATOM     14  C   UNL     1      -5.309  -2.412  -0.274  0.00  0.00    +0.038 A 
ATOM     15  C   UNL     1      -4.256  -1.552  -0.600  0.00  0.00    +0.008 A 
ENDBRANCH   1   9
BRANCH   1  16
ATOM     16  N   UNL     1      -1.481  -0.491  -0.996  0.00  0.00    -0.289 NA
ATOM     17  C   UNL     1      -0.386   0.440  -1.359  0.00  0.00    +0.100 C 
ATOM     18  C   UNL     1       0.736   0.487  -0.300  0.00  0.00    +0.100 C 
ATOM     19  N   UNL     1       1.261  -0.853   0.040  0.00  0.00    -0.296 NA
ATOM     20  C   UNL     1       0.172  -1.790   0.377  0.00  0.00    +0.100 C 
ATOM     21  C   UNL     1      -0.914  -1.831  -0.712  0.00  0.00    +0.100 C 
BRANCH  19  22
ATOM     22  C   UNL     1       2.180  -1.397  -0.986  0.00  0.00    +0.111 C 
BRANCH  22  23
ATOM     23  C   UNL     1       3.501  -0.684  -0.945  0.00  0.00    -0.011 C 
ATOM     24  C   UNL     1       4.276  -0.728   0.146  0.00  0.00    +0.005 C 
BRANCH  24  25
ATOM     25  C   UNL     1       5.582  -0.034   0.263  0.00  0.00    -0.025 A 
ATOM     26  C   UNL     1       6.329   0.377  -0.861  0.00  0.00    +0.008 A 
ATOM     27  C   UNL     1       7.559   1.020  -0.695  0.00  0.00    +0.001 A 
ATOM     28  C   UNL     1       8.063   1.253   0.587  0.00  0.00    +0.000 A 
ATOM     29  C   UNL     1       7.339   0.839   1.706  0.00  0.00    +0.001 A 
ATOM     30  C   UNL     1       6.108   0.195   1.547  0.00  0.00    +0.008 A 
ENDBRANCH  24  25
ENDBRANCH  22  23
ENDBRANCH  19  22
ENDBRANCH   1  16
TORSDOF 6
