REMARK  Name = 
REMARK  8 active torsions:
REMARK  status: ('A' for Active; 'I' for Inactive)
REMARK    1  A    between atoms: C_14  and  C_15
REMARK    2  A    between atoms: C_17  and  O_18
REMARK    3  A    between atoms: C_20  and  C_21
REMARK    4  A    between atoms: C_22  and  C_28
REMARK    5  A    between atoms: C_24  and  C_25
REMARK    6  A    between atoms: C_24  and  C_26
REMARK    7  A    between atoms: C_28  and  C_30
REMARK    8  A    between atoms: C_30  and  O_31
REMARK                            x       y       z     vdW  Elec       q    Type
REMARK                         _______ _______ _______ _____ _____    ______ ____
ROOT
ATOM      1  C   UNL     1      -2.681   0.961   1.195  0.00  0.00    +0.162 C 
ATOM      2  C   UNL     1      -1.255   1.427   1.542  0.00  0.00    +0.039 C 
ATOM      3  C   UNL     1      -0.379   0.644   0.578  0.00  0.00    +0.004 C 
ATOM      4  C   UNL     1       1.145   0.583   0.828  0.00  0.00    +0.002 C 
ATOM      5  C   UNL     1       1.724   2.009   0.929  0.00  0.00    +0.045 C 
ATOM      6  C   UNL     1       3.240   1.994   1.110  0.00  0.00    +0.193 C 
ATOM      7  F   UNL     1       3.689   3.307   1.140  0.00  0.00    -0.241 F 
ATOM      8  C   UNL     1       3.892   1.193   0.000  0.00  0.00    -0.023 C 
ATOM      9  C   UNL     1       4.956   1.692  -0.657  0.00  0.00    +0.053 C 
ATOM     10  C   UNL     1       5.594   0.942  -1.738  0.00  0.00    +0.179 C 
ATOM     11  O   UNL     1       6.617   1.402  -2.313  0.00  0.00    -0.288 OA
ATOM     12  C   UNL     1       5.021  -0.332  -2.164  0.00  0.00    +0.047 C 
ATOM     13  C   UNL     1       3.981  -0.856  -1.514  0.00  0.00    -0.012 C 
ATOM     14  C   UNL     1       3.390  -0.244  -0.242  0.00  0.00    +0.016 C 
ATOM     15  C   UNL     1       3.887  -1.113   0.941  0.00  0.00    +0.020 C 
ATOM     16  C   UNL     1       1.814  -0.189  -0.364  0.00  0.00    +0.035 C 
ATOM     17  C   UNL     1       1.103  -1.554  -0.698  0.00  0.00    +0.120 C 
ATOM     18  C   UNL     1      -0.449  -1.447  -0.751  0.00  0.00    +0.042 C 
ATOM     19  C   UNL     1      -1.047  -0.734   0.490  0.00  0.00    +0.012 C 
ATOM     20  C   UNL     1      -0.828  -1.604   1.773  0.00  0.00    +0.015 C 
ATOM     21  C   UNL     1      -2.562  -0.336   0.379  0.00  0.00    +0.164 C 
ATOM     22  O   UNL     1      -2.883   0.030  -0.935  0.00  0.00    -0.332 OA
ATOM     23  C   UNL     1      -3.532   1.282  -0.865  0.00  0.00    +0.166 C 
ATOM     24  C   UNL     1      -2.989   2.178  -1.983  0.00  0.00    +0.074 C 
ATOM     25  C   UNL     1      -5.043   1.091  -1.049  0.00  0.00    +0.074 C 
ATOM     26  O   UNL     1      -3.298   1.910   0.375  0.00  0.00    -0.343 OA
ENDROOT
BRANCH  17  27
ATOM     27  O   UNL     1       1.486  -2.563   0.198  0.00  0.00    -0.391 OA
ATOM     28  H   UNL     1       1.329  -3.433  -0.255  0.00  0.00    +0.210 HD
ENDBRANCH  17  27
BRANCH  21  29
ATOM     29  C   UNL     1      -3.533  -1.434   0.834  0.00  0.00    +0.193 C 
ATOM     30  O   UNL     1      -3.954  -1.444   1.983  0.00  0.00    -0.292 OA
BRANCH  29  31
ATOM     31  C   UNL     1      -3.931  -2.565  -0.078  0.00  0.00    +0.233 C 
BRANCH  31  32
ATOM     32  O   UNL     1      -4.703  -2.078  -1.140  0.00  0.00    -0.387 OA
ATOM     33  H   UNL     1      -4.736  -2.803  -1.816  0.00  0.00    +0.210 HD
ENDBRANCH  31  32
ENDBRANCH  29  31
ENDBRANCH  21  29
TORSDOF 4
