REMARK  Name = 
REMARK  8 active torsions:
REMARK  status: ('A' for Active; 'I' for Inactive)
REMARK    1  A    between atoms: C_14  and  C_15
REMARK    2  A    between atoms: C_18  and  O_19
REMARK    3  A    between atoms: C_21  and  C_22
REMARK    4  A    between atoms: C_23  and  C_29
REMARK    5  A    between atoms: C_25  and  C_26
REMARK    6  A    between atoms: C_25  and  C_27
REMARK    7  A    between atoms: C_29  and  C_31
REMARK    8  A    between atoms: C_31  and  O_32
REMARK                            x       y       z     vdW  Elec       q    Type
REMARK                         _______ _______ _______ _____ _____    ______ ____
ROOT
ATOM      1  C   UNL     1      -2.919   0.342  -0.477  0.00  0.00    +0.162 C 
ATOM      2  C   UNL     1      -1.788  -0.208  -1.370  0.00  0.00    +0.039 C 
ATOM      3  C   UNL     1      -0.571  -0.247  -0.457  0.00  0.00    +0.007 C 
ATOM      4  C   UNL     1       0.836  -0.282  -1.068  0.00  0.00    +0.037 C 
ATOM      5  C   UNL     1       0.961  -1.219  -2.275  0.00  0.00    +0.048 C 
ATOM      6  C   UNL     1       2.353  -1.089  -2.906  0.00  0.00    +0.194 C 
ATOM      7  F   UNL     1       2.475  -2.078  -3.870  0.00  0.00    -0.241 F 
ATOM      8  C   UNL     1       3.472  -1.179  -1.880  0.00  0.00    -0.020 C 
ATOM      9  C   UNL     1       4.681  -1.617  -2.292  0.00  0.00    +0.054 C 
ATOM     10  C   UNL     1       5.795  -1.730  -1.351  0.00  0.00    +0.179 C 
ATOM     11  O   UNL     1       6.950  -2.002  -1.765  0.00  0.00    -0.288 OA
ATOM     12  C   UNL     1       5.521  -1.573   0.082  0.00  0.00    +0.047 C 
ATOM     13  C   UNL     1       4.337  -1.114   0.488  0.00  0.00    -0.009 C 
ATOM     14  C   UNL     1       3.327  -0.497  -0.491  0.00  0.00    +0.047 C 
ATOM     15  C   UNL     1       3.688   1.002  -0.677  0.00  0.00    +0.023 C 
ATOM     16  C   UNL     1       1.851  -0.697   0.045  0.00  0.00    +0.153 C 
ATOM     17  F   UNL     1       1.718  -2.077   0.196  0.00  0.00    -0.238 F 
ATOM     18  C   UNL     1       1.490  -0.096   1.494  0.00  0.00    +0.154 C 
ATOM     19  C   UNL     1       0.230   0.837   1.677  0.00  0.00    +0.044 C 
ATOM     20  C   UNL     1      -0.747   0.958   0.475  0.00  0.00    +0.012 C 
ATOM     21  C   UNL     1      -0.464   2.328  -0.238  0.00  0.00    +0.015 C 
ATOM     22  C   UNL     1      -2.273   0.845   0.817  0.00  0.00    +0.164 C 
ATOM     23  O   UNL     1      -2.498  -0.182   1.746  0.00  0.00    -0.332 OA
ATOM     24  C   UNL     1      -3.556  -0.969   1.239  0.00  0.00    +0.166 C 
ATOM     25  C   UNL     1      -4.835  -0.677   2.039  0.00  0.00    +0.074 C 
ATOM     26  C   UNL     1      -3.191  -2.448   1.407  0.00  0.00    +0.074 C 
ATOM     27  O   UNL     1      -3.791  -0.691  -0.125  0.00  0.00    -0.343 OA
ENDROOT
BRANCH  18  28
ATOM     28  O   UNL     1       2.599   0.509   2.121  0.00  0.00    -0.389 OA
ATOM     29  H   UNL     1       2.446   0.490   3.103  0.00  0.00    +0.210 HD
ENDBRANCH  18  28
BRANCH  22  30
ATOM     30  C   UNL     1      -2.856   2.133   1.403  0.00  0.00    +0.193 C 
ATOM     31  O   UNL     1      -2.555   2.425   2.553  0.00  0.00    -0.292 OA
BRANCH  30  32
ATOM     32  C   UNL     1      -3.780   3.059   0.653  0.00  0.00    +0.233 C 
BRANCH  32  33
ATOM     33  O   UNL     1      -5.030   2.458   0.480  0.00  0.00    -0.387 OA
ATOM     34  H   UNL     1      -5.506   2.999  -0.210  0.00  0.00    +0.210 HD
ENDBRANCH  32  33
ENDBRANCH  30  32
ENDBRANCH  22  30
TORSDOF 4
