REMARK  Name = 
REMARK  10 active torsions:
REMARK  status: ('A' for Active; 'I' for Inactive)
REMARK    1  A    between atoms: C_14  and  C_15
REMARK    2  A    between atoms: C_18  and  O_19
REMARK    3  A    between atoms: C_21  and  C_22
REMARK    4  A    between atoms: C_23  and  C_29
REMARK    5  A    between atoms: C_25  and  C_26
REMARK    6  A    between atoms: C_25  and  C_27
REMARK    7  A    between atoms: C_29  and  C_31
REMARK    8  A    between atoms: C_31  and  O_32
REMARK    9  A    between atoms: O_32  and  C_33
REMARK   10  A    between atoms: C_33  and  C_34
REMARK                            x       y       z     vdW  Elec       q    Type
REMARK                         _______ _______ _______ _____ _____    ______ ____
ROOT
ATOM      1  C   UNL     1      -1.979  -0.935  -1.286  0.00  0.00    +0.162 C 
ATOM      2  C   UNL     1      -0.517  -0.958  -1.784  0.00  0.00    +0.039 C 
ATOM      3  C   UNL     1       0.300  -0.626  -0.544  0.00  0.00    +0.007 C 
ATOM      4  C   UNL     1       1.776  -0.185  -0.698  0.00  0.00    +0.037 C 
ATOM      5  C   UNL     1       2.567  -1.234  -1.509  0.00  0.00    +0.048 C 
ATOM      6  C   UNL     1       4.040  -0.850  -1.644  0.00  0.00    +0.194 C 
ATOM      7  F   UNL     1       4.696  -1.873  -2.314  0.00  0.00    -0.241 F 
ATOM      8  C   UNL     1       4.648  -0.584  -0.279  0.00  0.00    -0.020 C 
ATOM      9  C   UNL     1       5.853  -1.096   0.031  0.00  0.00    +0.054 C 
ATOM     10  C   UNL     1       6.460  -0.857   1.341  0.00  0.00    +0.179 C 
ATOM     11  O   UNL     1       7.605  -1.312   1.604  0.00  0.00    -0.288 OA
ATOM     12  C   UNL     1       5.715  -0.114   2.353  0.00  0.00    +0.047 C 
ATOM     13  C   UNL     1       4.531   0.423   2.061  0.00  0.00    -0.009 C 
ATOM     14  C   UNL     1       3.929   0.413   0.652  0.00  0.00    +0.047 C 
ATOM     15  C   UNL     1       4.163   1.831   0.067  0.00  0.00    +0.023 C 
ATOM     16  C   UNL     1       2.405  -0.015   0.736  0.00  0.00    +0.153 C 
ATOM     17  F   UNL     1       2.402  -1.276   1.327  0.00  0.00    -0.238 F 
ATOM     18  C   UNL     1       1.508   0.879   1.679  0.00  0.00    +0.154 C 
ATOM     19  C   UNL     1       0.004   0.481   1.659  0.00  0.00    +0.044 C 
ATOM     20  C   UNL     1      -0.565   0.382   0.220  0.00  0.00    +0.012 C 
ATOM     21  C   UNL     1      -0.600   1.798  -0.451  0.00  0.00    +0.015 C 
ATOM     22  C   UNL     1      -1.977  -0.281   0.103  0.00  0.00    +0.165 C 
ATOM     23  O   UNL     1      -2.094  -1.349   1.003  0.00  0.00    -0.332 OA
ATOM     24  C   UNL     1      -2.596  -2.447   0.269  0.00  0.00    +0.166 C 
ATOM     25  C   UNL     1      -1.813  -3.703   0.665  0.00  0.00    +0.074 C 
ATOM     26  C   UNL     1      -4.081  -2.647   0.602  0.00  0.00    +0.074 C 
ATOM     27  O   UNL     1      -2.453  -2.240  -1.120  0.00  0.00    -0.343 OA
ENDROOT
BRANCH  18  28
ATOM     28  O   UNL     1       1.642   2.245   1.389  0.00  0.00    -0.389 OA
ATOM     29  H   UNL     1       1.451   2.739   2.230  0.00  0.00    +0.210 HD
ENDBRANCH  18  28
BRANCH  22  30
ATOM     30  C   UNL     1      -3.123   0.690   0.396  0.00  0.00    +0.205 C 
ATOM     31  O   UNL     1      -3.236   1.121   1.536  0.00  0.00    -0.291 OA
BRANCH  30  32
ATOM     32  C   UNL     1      -4.127   1.124  -0.644  0.00  0.00    +0.309 C 
BRANCH  32  33
ATOM     33  O   UNL     1      -5.059   2.046  -0.086  0.00  0.00    -0.457 OA
BRANCH  33  34
ATOM     34  C   UNL     1      -6.134   2.567  -0.811  0.00  0.00    +0.304 C 
ATOM     35  C   UNL     1      -7.048   3.549  -0.159  0.00  0.00    +0.136 C 
ATOM     36  O   UNL     1      -6.313   2.246  -2.018  0.00  0.00    -0.251 OA
ENDBRANCH  33  34
ENDBRANCH  32  33
ENDBRANCH  30  32
ENDBRANCH  22  30
TORSDOF 5
