REMARK  Name = 
REMARK  0 active torsions:
REMARK  status: ('A' for Active; 'I' for Inactive)
REMARK                            x       y       z     vdW  Elec       q    Type
REMARK                         _______ _______ _______ _____ _____    ______ ____
ROOT
ATOM      1  F   UNL     1       2.666   0.566   0.125  0.00  0.00    -0.198 F 
ATOM      2  C   UNL     1       1.340   0.287   0.063  0.00  0.00    +0.203 A 
ATOM      3  C   UNL     1       0.399   1.313   0.125  0.00  0.00    +0.131 A 
ATOM      4  N   UNL     1      -0.928   1.023   0.062  0.00  0.00    -0.312 N 
ATOM      5  C   UNL     1      -1.354  -0.264  -0.061  0.00  0.00    +0.327 A 
ATOM      6  O   UNL     1      -2.588  -0.516  -0.118  0.00  0.00    -0.247 OA
ATOM      7  N   UNL     1      -0.450  -1.280  -0.123  0.00  0.00    -0.273 N 
ATOM      8  C   UNL     1       0.887  -1.027  -0.064  0.00  0.00    +0.289 A 
ATOM      9  O   UNL     1       1.712  -1.977  -0.122  0.00  0.00    -0.265 OA
ATOM     10  H   UNL     1      -1.623   1.801   0.110  0.00  0.00    +0.170 HD
ATOM     11  H   UNL     1      -0.785  -2.266  -0.218  0.00  0.00    +0.174 HD
ENDROOT
TORSDOF 0
