REMARK  Name = 
REMARK  7 active torsions:
REMARK  status: ('A' for Active; 'I' for Inactive)
REMARK    1  A    between atoms: C_4  and  O_5
REMARK    2  A    between atoms: C_4  and  C_6
REMARK    3  A    between atoms: C_6  and  C_7
REMARK    4  A    between atoms: C_9  and  C_10
REMARK    5  A    between atoms: C_12  and  O_13
REMARK    6  A    between atoms: C_18  and  C_19
REMARK    7  A    between atoms: C_26  and  C_27
REMARK                            x       y       z     vdW  Elec       q    Type
REMARK                         _______ _______ _______ _____ _____    ______ ____
ROOT
ATOM      1  C   UNL     1       1.025  -0.362  -1.077  0.00  0.00    +0.005 C 
ATOM      2  C   UNL     1       1.822  -1.429  -1.812  0.00  0.00    +0.008 C 
ATOM      3  C   UNL     1       3.224  -0.817  -1.972  0.00  0.00    +0.043 C 
ATOM      4  C   UNL     1       3.242   0.527  -1.173  0.00  0.00    +0.129 C 
ATOM      5  C   UNL     1       2.051   0.333  -0.165  0.00  0.00    +0.009 C 
ATOM      6  C   UNL     1       2.534  -0.570   1.022  0.00  0.00    +0.015 C 
ATOM      7  C   UNL     1       1.380   1.623   0.391  0.00  0.00    +0.044 C 
ATOM      8  C   UNL     1       0.026   1.347   1.108  0.00  0.00    +0.154 C 
ATOM      9  C   UNL     1      -0.971   0.511   0.226  0.00  0.00    +0.153 C 
ATOM     10  F   UNL     1      -1.281   1.328  -0.858  0.00  0.00    -0.238 F 
ATOM     11  C   UNL     1      -0.279  -0.778  -0.352  0.00  0.00    +0.034 C 
ATOM     12  C   UNL     1      -1.222  -1.524  -1.325  0.00  0.00    +0.014 C 
ATOM     13  C   UNL     1      -2.550  -1.895  -0.649  0.00  0.00    +0.013 C 
ATOM     14  C   UNL     1      -3.420  -2.721  -1.612  0.00  0.00    +0.012 C 
ATOM     15  C   UNL     1      -3.193  -0.624  -0.096  0.00  0.00    -0.050 C 
ATOM     16  C   UNL     1      -4.385  -0.173  -0.543  0.00  0.00    +0.051 C 
ATOM     17  C   UNL     1      -4.951   1.087  -0.065  0.00  0.00    +0.179 C 
ATOM     18  O   UNL     1      -6.071   1.480  -0.488  0.00  0.00    -0.288 OA
ATOM     19  C   UNL     1      -4.213   1.891   0.900  0.00  0.00    +0.047 C 
ATOM     20  C   UNL     1      -3.028   1.485   1.352  0.00  0.00    -0.009 C 
ATOM     21  C   UNL     1      -2.355   0.179   0.923  0.00  0.00    +0.045 C 
ATOM     22  C   UNL     1      -2.228  -0.679   2.210  0.00  0.00    +0.023 C 
ENDROOT
BRANCH   4  23
ATOM     23  C   UNL     1       4.612   0.791  -0.518  0.00  0.00    +0.162 C 
ATOM     24  C   UNL     1       4.891   2.019   0.305  0.00  0.00    +0.089 C 
ATOM     25  O   UNL     1       5.531   0.002  -0.675  0.00  0.00    -0.295 OA
ENDBRANCH   4  23
BRANCH   4  26
ATOM     26  O   UNL     1       2.960   1.549  -2.108  0.00  0.00    -0.381 OA
ATOM     27  H   UNL     1       3.060   2.430  -1.670  0.00  0.00    +0.211 HD
ENDBRANCH   4  26
BRANCH   8  28
ATOM     28  O   UNL     1       0.253   0.733   2.348  0.00  0.00    -0.389 OA
ATOM     29  H   UNL     1       0.601   1.432   2.961  0.00  0.00    +0.210 HD
ENDBRANCH   8  28
TORSDOF 3
