REMARK  Name = 
REMARK  5 active torsions:
REMARK  status: ('A' for Active; 'I' for Inactive)
REMARK    1  A    between atoms: C_4  and  C_5
REMARK    2  A    between atoms: C_4  and  O_6
REMARK    3  A    between atoms: C_7  and  C_8
REMARK    4  A    between atoms: C_10  and  O_11
REMARK    5  A    between atoms: C_23  and  C_24
REMARK                            x       y       z     vdW  Elec       q    Type
REMARK                         _______ _______ _______ _____ _____    ______ ____
ROOT
ATOM      1  C   UNL     1      -1.456   0.448  -0.739  0.00  0.00    +0.004 C 
ATOM      2  C   UNL     1      -2.336   1.360  -1.573  0.00  0.00    +0.007 C 
ATOM      3  C   UNL     1      -3.766   0.907  -1.199  0.00  0.00    +0.035 C 
ATOM      4  C   UNL     1      -3.652  -0.016   0.072  0.00  0.00    +0.069 C 
ATOM      5  C   UNL     1      -3.875  -1.493  -0.337  0.00  0.00    +0.042 C 
ATOM      6  C   UNL     1      -2.203   0.283   0.599  0.00  0.00    +0.002 C 
ATOM      7  C   UNL     1      -2.248   1.613   1.438  0.00  0.00    +0.014 C 
ATOM      8  C   UNL     1      -1.477  -0.787   1.489  0.00  0.00    +0.044 C 
ATOM      9  C   UNL     1      -0.280  -1.530   0.823  0.00  0.00    +0.153 C 
ATOM     10  C   UNL     1       0.710  -0.646  -0.077  0.00  0.00    +0.149 C 
ATOM     11  F   UNL     1       0.858  -1.384  -1.250  0.00  0.00    -0.238 F 
ATOM     12  C   UNL     1       0.037   0.710  -0.497  0.00  0.00    +0.034 C 
ATOM     13  C   UNL     1       0.776   1.329  -1.683  0.00  0.00    +0.011 C 
ATOM     14  C   UNL     1       2.196   1.694  -1.248  0.00  0.00    +0.032 C 
ATOM     15  C   UNL     1       2.922   0.546  -0.564  0.00  0.00    -0.057 C 
ATOM     16  C   UNL     1       4.257   0.487  -0.731  0.00  0.00    +0.046 C 
ATOM     17  C   UNL     1       5.090  -0.531  -0.081  0.00  0.00    +0.156 C 
ATOM     18  O   UNL     1       6.336  -0.523  -0.265  0.00  0.00    -0.293 OA
ATOM     19  C   UNL     1       4.486  -1.544   0.831  0.00  0.00    +0.080 C 
ATOM     20  C   UNL     1       2.994  -1.732   0.534  0.00  0.00    +0.022 C 
ATOM     21  C   UNL     1       2.192  -0.382   0.444  0.00  0.00    +0.026 C 
ATOM     22  C   UNL     1       2.189   0.310   1.833  0.00  0.00    +0.019 C 
ENDROOT
BRANCH   4  23
ATOM     23  O   UNL     1      -4.640   0.275   1.041  0.00  0.00    -0.388 OA
ATOM     24  H   UNL     1      -4.836   1.247   1.043  0.00  0.00    +0.210 HD
ENDBRANCH   4  23
BRANCH   9  25
ATOM     25  O   UNL     1       0.398  -2.258   1.810  0.00  0.00    -0.389 OA
ATOM     26  H   UNL     1      -0.187  -3.016   2.076  0.00  0.00    +0.210 HD
ENDBRANCH   9  25
TORSDOF 2
