REMARK  Name = 
REMARK  2 active torsions:
REMARK  status: ('A' for Active; 'I' for Inactive)
REMARK    1  A    between atoms: O_1  and  C_2
REMARK    2  A    between atoms: C_22  and  O_23
REMARK                            x       y       z     vdW  Elec       q    Type
REMARK                         _______ _______ _______ _____ _____    ______ ____
ROOT
ATOM      1  C   UNL     1      -1.467   3.896  -0.523  0.00  0.00    +0.120 A 
ATOM      2  C   UNL     1      -2.201   2.721  -0.725  0.00  0.00    +0.092 A 
ATOM      3  C   UNL     1      -1.680   1.484  -0.328  0.00  0.00    +0.140 A 
ATOM      4  C   UNL     1      -0.407   1.411   0.272  0.00  0.00    +0.047 A 
ATOM      5  C   UNL     1       0.323   2.599   0.469  0.00  0.00    +0.015 A 
ATOM      6  C   UNL     1      -0.206   3.831   0.076  0.00  0.00    +0.046 A 
ATOM      7  C   UNL     1       0.196   0.068   0.651  0.00  0.00    +0.196 C 
ATOM      8  O   UNL     1       0.716   0.130   1.989  0.00  0.00    -0.440 OA
ATOM      9  C   UNL     1       2.092  -0.072   1.984  0.00  0.00    +0.341 C 
ATOM     10  O   UNL     1       2.813  -0.071   3.015  0.00  0.00    -0.245 OA
ATOM     11  C   UNL     1       2.545  -0.277   0.632  0.00  0.00    +0.067 A 
ATOM     12  C   UNL     1       3.820  -0.515   0.122  0.00  0.00    +0.015 A 
ATOM     13  C   UNL     1       3.953  -0.677  -1.267  0.00  0.00    +0.001 A 
ATOM     14  C   UNL     1       2.821  -0.598  -2.105  0.00  0.00    +0.000 A 
ATOM     15  C   UNL     1       1.548  -0.356  -1.560  0.00  0.00    +0.009 A 
ATOM     16  C   UNL     1       1.435  -0.198  -0.177  0.00  0.00    +0.019 A 
ATOM     17  C   UNL     1      -0.773  -1.097   0.529  0.00  0.00    +0.047 A 
ATOM     18  C   UNL     1      -2.031  -0.924  -0.081  0.00  0.00    +0.140 A 
ATOM     19  O   UNL     1      -2.443   0.333  -0.525  0.00  0.00    -0.455 OA
ATOM     20  C   UNL     1      -2.893  -2.015  -0.239  0.00  0.00    +0.092 A 
ATOM     21  C   UNL     1      -2.518  -3.284   0.212  0.00  0.00    +0.120 A 
ATOM     22  C   UNL     1      -1.272  -3.462   0.825  0.00  0.00    +0.046 A 
ATOM     23  C   UNL     1      -0.404  -2.378   0.980  0.00  0.00    +0.015 A 
ENDROOT
BRANCH   1  24
ATOM     24  O   UNL     1      -1.980   5.130  -0.913  0.00  0.00    -0.507 OA
ATOM     25  H   UNL     1      -2.891   5.211  -1.350  0.00  0.00    +0.292 HD
ENDBRANCH   1  24
BRANCH  21  26
ATOM     26  O   UNL     1      -3.390  -4.358   0.049  0.00  0.00    -0.507 OA
ATOM     27  H   UNL     1      -3.147  -5.289   0.365  0.00  0.00    +0.292 HD
ENDBRANCH  21  26
TORSDOF 2
