REMARK  Name = 
REMARK  8 active torsions:
REMARK  status: ('A' for Active; 'I' for Inactive)
REMARK    1  A    between atoms: C_1  and  N_2
REMARK    2  A    between atoms: N_2  and  C_3
REMARK    3  A    between atoms: C_3  and  C_4
REMARK    4  A    between atoms: C_4  and  C_5
REMARK    5  A    between atoms: C_5  and  O_6
REMARK    6  A    between atoms: C_5  and  C_17
REMARK    7  A    between atoms: O_6  and  C_7
REMARK    8  A    between atoms: C_10  and  C_13
REMARK                            x       y       z     vdW  Elec       q    Type
REMARK                         _______ _______ _______ _____ _____    ______ ____
ROOT
ATOM      1  C   UNL     1      -0.575  -0.594  -0.094  0.00  0.00    +0.205 C 
ENDROOT
BRANCH   1   2
ATOM      2  C   UNL     1      -1.527  -1.761  -0.245  0.00  0.00    -0.007 A 
ATOM      3  C   UNL     1      -2.135  -2.025  -1.485  0.00  0.00    +0.007 A 
ATOM      4  C   UNL     1      -3.031  -3.090  -1.619  0.00  0.00    +0.000 A 
ATOM      5  C   UNL     1      -3.332  -3.897  -0.519  0.00  0.00    +0.000 A 
ATOM      6  C   UNL     1      -2.738  -3.639   0.719  0.00  0.00    +0.000 A 
ATOM      7  C   UNL     1      -1.842  -2.575   0.859  0.00  0.00    +0.007 A 
ENDBRANCH   1   2
BRANCH   1   8
ATOM      8  C   UNL     1      -1.243   0.562   0.682  0.00  0.00    +0.064 C 
BRANCH   8   9
ATOM      9  C   UNL     1      -2.369   1.227  -0.123  0.00  0.00    +0.084 C 
BRANCH   9  11
ATOM     10  C   UNL     1      -2.254   3.600   0.369  0.00  0.00    +0.101 C 
ATOM     11  N   UNL     1      -2.954   2.341   0.638  0.00  0.00    -0.319 NA
ATOM     12  H   UNL     1      -3.943   2.467   0.317  0.00  0.00    +0.122 HD
ENDBRANCH   9  11
ENDBRANCH   8   9
ENDBRANCH   1   8
BRANCH   1  13
ATOM     13  O   UNL     1       0.593  -1.042   0.600  0.00  0.00    -0.484 OA
BRANCH  13  14
ATOM     14  C   UNL     1       1.825  -0.371   0.660  0.00  0.00    +0.121 A 
ATOM     15  C   UNL     1       2.834  -0.919   1.460  0.00  0.00    +0.046 A 
ATOM     16  C   UNL     1       4.081  -0.297   1.561  0.00  0.00    +0.016 A 
ATOM     17  C   UNL     1       4.337   0.901   0.874  0.00  0.00    +0.055 A 
ATOM     18  C   UNL     1       3.336   1.437   0.047  0.00  0.00    +0.016 A 
ATOM     19  C   UNL     1       2.088   0.814  -0.054  0.00  0.00    +0.046 A 
BRANCH  17  20
ATOM     20  C   UNL     1       5.698   1.546   0.943  0.00  0.00    +0.417 C 
ATOM     21  F   UNL     1       5.598   2.916   0.771  0.00  0.00    -0.166 F 
ATOM     22  F   UNL     1       6.292   1.306   2.170  0.00  0.00    -0.166 F 
ATOM     23  F   UNL     1       6.500   1.025  -0.055  0.00  0.00    -0.166 F 
ENDBRANCH  17  20
ENDBRANCH  13  14
ENDBRANCH   1  13
TORSDOF 7
