REMARK  Name = 
REMARK  7 active torsions:
REMARK  status: ('A' for Active; 'I' for Inactive)
REMARK    1  A    between atoms: C_1  and  C_2
REMARK    2  A    between atoms: C_2  and  C_3
REMARK    3  A    between atoms: C_3  and  N_4
REMARK    4  A    between atoms: N_7  and  C_8
REMARK    5  A    between atoms: C_8  and  C_9
REMARK    6  A    between atoms: C_9  and  O_10
REMARK    7  A    between atoms: C_16  and  C_27
REMARK                            x       y       z     vdW  Elec       q    Type
REMARK                         _______ _______ _______ _____ _____    ______ ____
ROOT
ATOM      1  C   UNL     1      -1.319  -1.051  -0.048  0.00  0.00    -0.021 C 
ATOM      2  C   UNL     1      -2.505  -0.495  -0.376  0.00  0.00    -0.035 C 
ATOM      3  C   UNL     1      -3.738  -1.393  -0.438  0.00  0.00    +0.059 C 
ATOM      4  C   UNL     1      -4.242  -1.647   0.962  0.00  0.00    -0.005 C 
ATOM      5  C   UNL     1      -5.247  -0.934   1.498  0.00  0.00    +0.051 C 
ATOM      6  C   UNL     1      -6.010   0.013   0.652  0.00  0.00    +0.009 C 
ATOM      7  C   UNL     1      -5.817   0.079  -0.666  0.00  0.00    -0.011 C 
ATOM      8  C   UNL     1      -4.868  -0.861  -1.371  0.00  0.00    +0.085 C 
ATOM      9  S   UNL     1      -4.158  -0.072  -2.866  0.00  0.00    -0.116 S 
ATOM     10  C   UNL     1      -3.390   1.247  -1.917  0.00  0.00    +0.016 A 
ATOM     11  C   UNL     1      -2.634   0.931  -0.777  0.00  0.00    -0.008 A 
ATOM     12  C   UNL     1      -2.153   1.972   0.037  0.00  0.00    +0.009 A 
ATOM     13  C   UNL     1      -2.377   3.305  -0.320  0.00  0.00    +0.001 A 
ATOM     14  C   UNL     1      -3.113   3.610  -1.467  0.00  0.00    +0.001 A 
ATOM     15  C   UNL     1      -3.636   2.582  -2.255  0.00  0.00    +0.015 A 
ENDROOT
BRANCH   5  16
ATOM     16  C   UNL     1      -5.662  -1.179   2.927  0.00  0.00    +0.417 C 
ATOM     17  F   UNL     1      -6.402  -2.345   2.995  0.00  0.00    -0.166 F 
ATOM     18  F   UNL     1      -4.546  -1.304   3.737  0.00  0.00    -0.166 F 
ATOM     19  F   UNL     1      -6.429  -0.133   3.408  0.00  0.00    -0.166 F 
ENDBRANCH   5  16
BRANCH   1  20
ATOM     20  C   UNL     1       0.005  -0.334  -0.136  0.00  0.00    +0.043 C 
BRANCH  20  21
ATOM     21  C   UNL     1       1.175  -1.327  -0.121  0.00  0.00    +0.088 C 
BRANCH  21  22
ATOM     22  N   UNL     1       2.457  -0.625  -0.350  0.00  0.00    -0.300 NA
ATOM     23  C   UNL     1       3.453  -1.550  -0.927  0.00  0.00    +0.100 C 
ATOM     24  C   UNL     1       4.772  -0.816  -1.186  0.00  0.00    +0.100 C 
ATOM     25  N   UNL     1       5.293  -0.239   0.069  0.00  0.00    -0.298 NA
ATOM     26  C   UNL     1       4.295   0.688   0.641  0.00  0.00    +0.100 C 
ATOM     27  C   UNL     1       2.982  -0.053   0.908  0.00  0.00    +0.100 C 
BRANCH  25  28
ATOM     28  C   UNL     1       6.579   0.450  -0.179  0.00  0.00    +0.112 C 
BRANCH  28  29
ATOM     29  C   UNL     1       7.416   0.535   1.102  0.00  0.00    +0.171 C 
BRANCH  29  30
ATOM     30  O   UNL     1       7.570  -0.733   1.680  0.00  0.00    -0.394 OA
ATOM     31  H   UNL     1       8.225  -1.223   1.118  0.00  0.00    +0.209 HD
ENDBRANCH  29  30
ENDBRANCH  28  29
ENDBRANCH  25  28
ENDBRANCH  21  22
ENDBRANCH  20  21
ENDBRANCH   1  20
TORSDOF 7
