REMARK  Name = 
REMARK  8 active torsions:
REMARK  status: ('A' for Active; 'I' for Inactive)
REMARK    1  A    between atoms: O_1  and  C_2
REMARK    2  A    between atoms: C_2  and  C_3
REMARK    3  A    between atoms: C_3  and  N_4
REMARK    4  A    between atoms: N_7  and  C_8
REMARK    5  A    between atoms: C_8  and  C_9
REMARK    6  A    between atoms: C_9  and  C_10
REMARK    7  A    between atoms: C_10  and  N_11
REMARK    8  A    between atoms: C_22  and  C_25
REMARK                            x       y       z     vdW  Elec       q    Type
REMARK                         _______ _______ _______ _____ _____    ______ ____
ROOT
ATOM      1  N   UNL     1      -2.488   1.205   0.097  0.00  0.00    -0.298 N 
ATOM      2  C   UNL     1      -2.703   2.183   1.144  0.00  0.00    +0.048 A 
ATOM      3  C   UNL     1      -1.632   2.892   1.721  0.00  0.00    +0.024 A 
ATOM      4  C   UNL     1      -1.840   3.707   2.837  0.00  0.00    +0.002 A 
ATOM      5  C   UNL     1      -3.114   3.813   3.400  0.00  0.00    +0.001 A 
ATOM      6  C   UNL     1      -4.188   3.124   2.833  0.00  0.00    +0.017 A 
ATOM      7  C   UNL     1      -3.990   2.329   1.701  0.00  0.00    +0.034 A 
ATOM      8  S   UNL     1      -5.399   1.584   0.882  0.00  0.00    -0.086 S 
ATOM      9  C   UNL     1      -4.573   0.009   0.656  0.00  0.00    +0.034 A 
ATOM     10  C   UNL     1      -3.263  -0.019   0.143  0.00  0.00    +0.048 A 
ATOM     11  C   UNL     1      -2.694  -1.261  -0.197  0.00  0.00    +0.037 A 
ATOM     12  C   UNL     1      -3.385  -2.460   0.049  0.00  0.00    +0.057 A 
ATOM     13  C   UNL     1      -4.681  -2.405   0.591  0.00  0.00    +0.013 A 
ATOM     14  C   UNL     1      -5.269  -1.178   0.894  0.00  0.00    +0.017 A 
ENDROOT
BRANCH  12  15
ATOM     15  C   UNL     1      -2.775  -3.783  -0.338  0.00  0.00    +0.417 C 
ATOM     16  F   UNL     1      -1.396  -3.739  -0.229  0.00  0.00    -0.166 F 
ATOM     17  F   UNL     1      -3.112  -4.075  -1.643  0.00  0.00    -0.166 F 
ATOM     18  F   UNL     1      -3.239  -4.793   0.482  0.00  0.00    -0.166 F 
ENDBRANCH  12  15
BRANCH   1  19
ATOM     19  C   UNL     1      -1.529   1.448  -0.994  0.00  0.00    +0.112 C 
BRANCH  19  20
ATOM     20  C   UNL     1      -0.116   0.937  -0.643  0.00  0.00    +0.035 C 
BRANCH  20  21
ATOM     21  C   UNL     1       0.595   0.336  -1.863  0.00  0.00    +0.086 C 
BRANCH  21  25
ATOM     22  N   UNL     1       4.391  -1.063  -0.884  0.00  0.00    -0.298 NA
ATOM     23  C   UNL     1       3.328  -2.070  -0.712  0.00  0.00    +0.100 C 
ATOM     24  C   UNL     1       1.915  -1.461  -0.854  0.00  0.00    +0.100 C 
ATOM     25  N   UNL     1       1.951  -0.124  -1.492  0.00  0.00    -0.300 NA
ATOM     26  C   UNL     1       2.850  -0.141  -2.659  0.00  0.00    +0.100 C 
ATOM     27  C   UNL     1       4.304  -0.424  -2.215  0.00  0.00    +0.100 C 
BRANCH  22  28
ATOM     28  C   UNL     1       4.431  -0.080   0.221  0.00  0.00    +0.112 C 
BRANCH  28  29
ATOM     29  C   UNL     1       5.878   0.197   0.620  0.00  0.00    +0.171 C 
BRANCH  29  30
ATOM     30  O   UNL     1       6.488  -0.970   1.098  0.00  0.00    -0.394 OA
ATOM     31  H   UNL     1       6.123  -1.127   2.006  0.00  0.00    +0.209 HD
ENDBRANCH  29  30
ENDBRANCH  28  29
ENDBRANCH  22  28
ENDBRANCH  21  25
ENDBRANCH  20  21
ENDBRANCH  19  20
ENDBRANCH   1  19
TORSDOF 8
