REMARK  Name = 
REMARK  5 active torsions:
REMARK  status: ('A' for Active; 'I' for Inactive)
REMARK    1  A    between atoms: C_1  and  C_2
REMARK    2  A    between atoms: C_2  and  C_3
REMARK    3  A    between atoms: C_2  and  C_6
REMARK    4  A    between atoms: C_3  and  O_4
REMARK    5  A    between atoms: C_10  and  C_13
REMARK                            x       y       z     vdW  Elec       q    Type
REMARK                         _______ _______ _______ _____ _____    ______ ____
ROOT
ATOM      1  C   UNL     1       1.855  -0.326  -0.376  0.00  0.00    -0.031 A 
ATOM      2  C   UNL     1       1.257   0.645   0.449  0.00  0.00    +0.043 A 
ATOM      3  C   UNL     1      -0.135   0.756   0.526  0.00  0.00    +0.131 A 
ATOM      4  F   UNL     1      -0.673   1.680   1.362  0.00  0.00    -0.205 F 
ATOM      5  C   UNL     1      -0.959  -0.105  -0.223  0.00  0.00    +0.017 A 
ATOM      6  C   UNL     1      -0.361  -1.081  -1.039  0.00  0.00    +0.011 A 
ATOM      7  C   UNL     1       1.030  -1.189  -1.116  0.00  0.00    +0.005 A 
ENDROOT
BRANCH   5   8
ATOM      8  C   UNL     1      -2.437   0.001  -0.157  0.00  0.00    -0.015 A 
ATOM      9  C   UNL     1      -3.226  -1.152   0.003  0.00  0.00    +0.008 A 
ATOM     10  C   UNL     1      -4.620  -1.053   0.059  0.00  0.00    +0.001 A 
ATOM     11  C   UNL     1      -5.239   0.195  -0.050  0.00  0.00    +0.000 A 
ATOM     12  C   UNL     1      -4.465   1.346  -0.216  0.00  0.00    +0.001 A 
ATOM     13  C   UNL     1      -3.071   1.252  -0.271  0.00  0.00    +0.008 A 
ENDBRANCH   5   8
BRANCH   1  15
ATOM     14  C   UNL     1       3.957  -0.890   0.883  0.00  0.00    +0.024 C 
ATOM     15  C   UNL     1       3.362  -0.458  -0.462  0.00  0.00    +0.124 C 
BRANCH  15  16
ATOM     16  C   UNL     1       3.979   0.824  -0.955  0.00  0.00    +0.312 C 
ATOM     17  O   UNL     1       4.166   0.992  -2.190  0.00  0.00    -0.250 OA
BRANCH  16  18
ATOM     18  O   UNL     1       4.301   1.844  -0.064  0.00  0.00    -0.480 OA
ATOM     19  H   UNL     1       4.699   2.715  -0.393  0.00  0.00    +0.295 HD
ENDBRANCH  16  18
ENDBRANCH  15  16
ENDBRANCH   1  15
TORSDOF 4
