REMARK  Name = 
REMARK  8 active torsions:
REMARK  status: ('A' for Active; 'I' for Inactive)
REMARK    1  A    between atoms: C_1  and  C_2
REMARK    2  A    between atoms: C_2  and  N_3
REMARK    3  A    between atoms: N_3  and  C_4
REMARK    4  A    between atoms: N_3  and  C_6
REMARK    5  A    between atoms: C_4  and  C_5
REMARK    6  A    between atoms: C_6  and  C_7
REMARK    7  A    between atoms: C_7  and  N_8
REMARK    8  A    between atoms: C_16  and  C_21
REMARK                            x       y       z     vdW  Elec       q    Type
REMARK                         _______ _______ _______ _____ _____    ______ ____
ROOT
ATOM      1  N   UNL     1      -0.088   0.012   0.927  0.00  0.00    -0.268 N 
ATOM      2  C   UNL     1       0.686   1.114   0.391  0.00  0.00    +0.046 A 
ATOM      3  C   UNL     1       2.104   1.059   0.296  0.00  0.00    +0.023 A 
ATOM      4  C   UNL     1       2.800   2.157  -0.244  0.00  0.00    +0.032 A 
ATOM      5  C   UNL     1       2.117   3.286  -0.698  0.00  0.00    +0.042 A 
ATOM      6 CL   UNL     1       3.006   4.640  -1.371  0.00  0.00    -0.084 Cl
ATOM      7  C   UNL     1       0.727   3.336  -0.617  0.00  0.00    +0.022 A 
ATOM      8  C   UNL     1       0.018   2.262  -0.080  0.00  0.00    +0.025 A 
ATOM      9  C   UNL     1       2.896  -0.125   0.741  0.00  0.00    +0.078 C 
ATOM     10  N   UNL     1       2.671  -0.698   1.889  0.00  0.00    -0.273 NA
ATOM     11  C   UNL     1       1.605  -0.322   2.806  0.00  0.00    +0.238 C 
ATOM     12  C   UNL     1       0.293  -0.631   2.162  0.00  0.00    +0.241 C 
ATOM     13  O   UNL     1      -0.451  -1.505   2.684  0.00  0.00    -0.273 OA
ENDROOT
BRANCH   9  14
ATOM     14  C   UNL     1       4.020  -0.631  -0.088  0.00  0.00    +0.036 A 
ATOM     15  C   UNL     1       5.195  -1.097   0.532  0.00  0.00    +0.013 A 
ATOM     16  C   UNL     1       6.260  -1.575  -0.237  0.00  0.00    +0.001 A 
ATOM     17  C   UNL     1       6.163  -1.602  -1.629  0.00  0.00    +0.003 A 
ATOM     18  C   UNL     1       4.997  -1.156  -2.256  0.00  0.00    +0.039 A 
ATOM     19  C   UNL     1       3.927  -0.676  -1.495  0.00  0.00    +0.133 A 
ATOM     20  F   UNL     1       2.793  -0.288  -2.132  0.00  0.00    -0.205 F 
ENDBRANCH   9  14
BRANCH   1  21
ATOM     21  C   UNL     1      -1.284  -0.458   0.208  0.00  0.00    +0.129 C 
BRANCH  21  22
ATOM     22  C   UNL     1      -2.575  -0.032   0.930  0.00  0.00    +0.103 C 
BRANCH  22  23
ATOM     23  N   UNL     1      -3.756  -0.142   0.045  0.00  0.00    -0.301 NA
BRANCH  23  25
ATOM     24  C   UNL     1      -5.578   1.425  -0.456  0.00  0.00    +0.020 C 
ATOM     25  C   UNL     1      -4.951   0.530   0.606  0.00  0.00    +0.081 C 
ENDBRANCH  23  25
BRANCH  23  26
ATOM     26  C   UNL     1      -4.049  -1.516  -0.436  0.00  0.00    +0.081 C 
ATOM     27  C   UNL     1      -4.160  -2.566   0.681  0.00  0.00    +0.020 C 
ENDBRANCH  23  26
ENDBRANCH  22  23
ENDBRANCH  21  22
ENDBRANCH   1  21
TORSDOF 6
