REMARK  Name = 
REMARK  8 active torsions:
REMARK  status: ('A' for Active; 'I' for Inactive)
REMARK    1  A    between atoms: C_14  and  C_15
REMARK    2  A    between atoms: C_17  and  O_18
REMARK    3  A    between atoms: C_20  and  C_21
REMARK    4  A    between atoms: C_22  and  C_28
REMARK    5  A    between atoms: C_24  and  C_25
REMARK    6  A    between atoms: C_24  and  C_26
REMARK    7  A    between atoms: C_28  and  C_30
REMARK    8  A    between atoms: C_30  and  O_31
REMARK                            x       y       z     vdW  Elec       q    Type
REMARK                         _______ _______ _______ _____ _____    ______ ____
ROOT
ATOM      1  C   UNL     1      -3.022   0.816   0.502  0.00  0.00    +0.162 C 
ATOM      2  C   UNL     1      -1.766   1.684   0.242  0.00  0.00    +0.039 C 
ATOM      3  C   UNL     1      -0.635   0.671   0.091  0.00  0.00    +0.004 C 
ATOM      4  C   UNL     1       0.841   1.109   0.244  0.00  0.00    +0.002 C 
ATOM      5  C   UNL     1       1.204   2.373  -0.591  0.00  0.00    +0.045 C 
ATOM      6  C   UNL     1       2.167   2.130  -1.761  0.00  0.00    +0.193 C 
ATOM      7  F   UNL     1       1.494   1.502  -2.796  0.00  0.00    -0.241 F 
ATOM      8  C   UNL     1       3.369   1.295  -1.366  0.00  0.00    -0.027 C 
ATOM      9  C   UNL     1       4.494   1.412  -2.094  0.00  0.00    +0.049 C 
ATOM     10  C   UNL     1       5.632   0.498  -1.919  0.00  0.00    +0.156 C 
ATOM     11  O   UNL     1       6.698   0.707  -2.556  0.00  0.00    -0.293 OA
ATOM     12  C   UNL     1       5.548  -0.671  -0.985  0.00  0.00    +0.080 C 
ATOM     13  C   UNL     1       4.090  -1.006  -0.633  0.00  0.00    +0.019 C 
ATOM     14  C   UNL     1       3.253   0.252  -0.247  0.00  0.00    -0.002 C 
ATOM     15  C   UNL     1       3.824   0.868   1.059  0.00  0.00    +0.016 C 
ATOM     16  C   UNL     1       1.732  -0.128  -0.117  0.00  0.00    +0.031 C 
ATOM     17  C   UNL     1       1.387  -1.387   0.745  0.00  0.00    +0.119 C 
ATOM     18  C   UNL     1      -0.141  -1.704   0.734  0.00  0.00    +0.042 C 
ATOM     19  C   UNL     1      -1.021  -0.466   1.055  0.00  0.00    +0.012 C 
ATOM     20  C   UNL     1      -0.859  -0.077   2.566  0.00  0.00    +0.015 C 
ATOM     21  C   UNL     1      -2.541  -0.620   0.729  0.00  0.00    +0.164 C 
ATOM     22  O   UNL     1      -2.720  -1.248  -0.513  0.00  0.00    -0.332 OA
ATOM     23  C   UNL     1      -3.655  -0.470  -1.233  0.00  0.00    +0.166 C 
ATOM     24  C   UNL     1      -3.143  -0.265  -2.664  0.00  0.00    +0.074 C 
ATOM     25  C   UNL     1      -4.997  -1.212  -1.281  0.00  0.00    +0.074 C 
ATOM     26  O   UNL     1      -3.841   0.792  -0.630  0.00  0.00    -0.343 OA
ENDROOT
BRANCH  17  27
ATOM     27  O   UNL     1       1.860  -1.243   2.057  0.00  0.00    -0.391 OA
ATOM     28  H   UNL     1       1.862  -2.148   2.466  0.00  0.00    +0.210 HD
ENDBRANCH  17  27
BRANCH  21  29
ATOM     29  C   UNL     1      -3.303  -1.434   1.780  0.00  0.00    +0.193 C 
ATOM     30  O   UNL     1      -3.156  -2.647   1.788  0.00  0.00    -0.292 OA
BRANCH  29  31
ATOM     31  C   UNL     1      -4.228  -0.827   2.807  0.00  0.00    +0.233 C 
BRANCH  31  32
ATOM     32  O   UNL     1      -5.429  -0.421   2.211  0.00  0.00    -0.387 OA
ATOM     33  H   UNL     1      -5.987  -1.236   2.114  0.00  0.00    +0.210 HD
ENDBRANCH  31  32
ENDBRANCH  29  31
ENDBRANCH  21  29
TORSDOF 4
