REMARK  Name = 
REMARK  7 active torsions:
REMARK  status: ('A' for Active; 'I' for Inactive)
REMARK    1  A    between atoms: C_5  and  C_8
REMARK    2  A    between atoms: C_8  and  C_9
REMARK    3  A    between atoms: C_8  and  C_29
REMARK    4  A    between atoms: C_9  and  C_10
REMARK    5  A    between atoms: C_10  and  C_11
REMARK    6  A    between atoms: C_11  and  N_12
REMARK    7  A    between atoms: N_18  and  C_23
REMARK                            x       y       z     vdW  Elec       q    Type
REMARK                         _______ _______ _______ _____ _____    ______ ____
ROOT
ATOM      1  C   UNL     1      -0.215  -0.021  -0.803  0.00  0.00    +0.084 C 
ENDROOT
BRANCH   1   2
ATOM      2  N   UNL     1       0.909   0.906  -1.050  0.00  0.00    -0.302 NA
ATOM      3  C   UNL     1       1.546   1.427   0.167  0.00  0.00    +0.087 C 
ATOM      4  C   UNL     1       2.333   0.362   0.952  0.00  0.00    +0.051 C 
ATOM      5  C   UNL     1       2.956  -0.811   0.118  0.00  0.00    +0.115 C 
ATOM      6  C   UNL     1       2.756  -0.763  -1.437  0.00  0.00    +0.051 C 
ATOM      7  C   UNL     1       1.911   0.398  -1.997  0.00  0.00    +0.087 C 
ATOM      8  N   UNL     1       4.396  -0.980   0.449  0.00  0.00    -0.300 N 
ATOM      9  C   UNL     1       4.653  -2.277   1.095  0.00  0.00    +0.214 C 
ATOM     10  N   UNL     1       3.378  -2.948   1.177  0.00  0.00    -0.298 N 
ATOM     11  C   UNL     1       2.392  -2.105   0.629  0.00  0.00    +0.238 C 
ATOM     12  O   UNL     1       1.174  -2.425   0.598  0.00  0.00    -0.273 OA
ATOM     13  H   UNL     1       3.212  -3.891   1.594  0.00  0.00    +0.150 HD
BRANCH   8  14
ATOM     14  C   UNL     1       5.466  -0.022   0.209  0.00  0.00    +0.032 A 
ATOM     15  C   UNL     1       5.224   1.212  -0.427  0.00  0.00    +0.023 A 
ATOM     16  C   UNL     1       6.259   2.128  -0.640  0.00  0.00    +0.002 A 
ATOM     17  C   UNL     1       7.556   1.829  -0.227  0.00  0.00    +0.000 A 
ATOM     18  C   UNL     1       7.821   0.611   0.398  0.00  0.00    +0.002 A 
ATOM     19  C   UNL     1       6.790  -0.308   0.614  0.00  0.00    +0.023 A 
ENDBRANCH   8  14
ENDBRANCH   1   2
BRANCH   1  20
ATOM     20  C   UNL     1      -1.467   0.502  -1.516  0.00  0.00    +0.016 C 
BRANCH  20  21
ATOM     21  C   UNL     1      -2.697  -0.396  -1.274  0.00  0.00    +0.014 C 
BRANCH  21  22
ATOM     22  C   UNL     1      -3.414  -0.094   0.067  0.00  0.00    +0.049 C 
BRANCH  22  27
ATOM     23  F   UNL     1      -6.146   4.895  -0.047  0.00  0.00    -0.205 F 
ATOM     24  C   UNL     1      -5.498   3.704  -0.021  0.00  0.00    +0.123 A 
ATOM     25  C   UNL     1      -4.416   3.515   0.842  0.00  0.00    +0.038 A 
ATOM     26  C   UNL     1      -3.745   2.288   0.869  0.00  0.00    +0.007 A 
ATOM     27  C   UNL     1      -4.152   1.234   0.029  0.00  0.00    -0.040 A 
ATOM     28  C   UNL     1      -5.243   1.438  -0.838  0.00  0.00    +0.007 A 
ATOM     29  C   UNL     1      -5.910   2.666  -0.861  0.00  0.00    +0.038 A 
ENDBRANCH  22  27
BRANCH  22  30
ATOM     30  C   UNL     1      -4.350  -1.209   0.510  0.00  0.00    -0.040 A 
ATOM     31  C   UNL     1      -4.485  -1.484   1.884  0.00  0.00    +0.007 A 
ATOM     32  C   UNL     1      -5.358  -2.481   2.328  0.00  0.00    +0.038 A 
ATOM     33  C   UNL     1      -6.118  -3.208   1.408  0.00  0.00    +0.123 A 
ATOM     34  F   UNL     1      -6.964  -4.175   1.841  0.00  0.00    -0.205 F 
ATOM     35  C   UNL     1      -6.009  -2.933   0.043  0.00  0.00    +0.038 A 
ATOM     36  C   UNL     1      -5.136  -1.938  -0.406  0.00  0.00    +0.007 A 
ENDBRANCH  22  30
ENDBRANCH  21  22
ENDBRANCH  20  21
ENDBRANCH   1  20
TORSDOF 7
