REMARK  Name = 
REMARK  11 active torsions:
REMARK  status: ('A' for Active; 'I' for Inactive)
REMARK    1  A    between atoms: C_3  and  C_4
REMARK    2  A    between atoms: C_5  and  O_6
REMARK    3  A    between atoms: C_5  and  C_11
REMARK    4  A    between atoms: O_6  and  C_7
REMARK    5  A    between atoms: C_7  and  C_9
REMARK    6  A    between atoms: C_9  and  C_10
REMARK    7  A    between atoms: C_11  and  S_13
REMARK    8  A    between atoms: S_13  and  C_14
REMARK    9  A    between atoms: C_16  and  C_17
REMARK   10  A    between atoms: C_19  and  O_20
REMARK   11  A    between atoms: C_33  and  C_34
REMARK                            x       y       z     vdW  Elec       q    Type
REMARK                         _______ _______ _______ _____ _____    ______ ____
ROOT
ATOM      1  C   UNL     1       0.100  -0.726  -0.968  0.00  0.00    +0.006 C 
ATOM      2  C   UNL     1      -0.404  -1.547  -2.147  0.00  0.00    +0.012 C 
ATOM      3  C   UNL     1      -1.942  -1.385  -2.104  0.00  0.00    +0.039 C 
ATOM      4  C   UNL     1      -2.645  -2.738  -1.897  0.00  0.00    +0.012 C 
ATOM      5  C   UNL     1      -2.258  -0.325  -0.988  0.00  0.00    +0.189 C 
ATOM      6  C   UNL     1      -0.893   0.440  -0.853  0.00  0.00    +0.022 C 
ATOM      7  C   UNL     1      -0.761   1.477  -2.026  0.00  0.00    +0.016 C 
ATOM      8  C   UNL     1      -0.625   1.146   0.504  0.00  0.00    +0.046 C 
ATOM      9  C   UNL     1       0.847   1.621   0.663  0.00  0.00    +0.154 C 
ATOM     10  C   UNL     1       1.887   0.469   0.396  0.00  0.00    +0.153 C 
ATOM     11  F   UNL     1       1.689  -0.450   1.422  0.00  0.00    -0.238 F 
ATOM     12  C   UNL     1       1.584  -0.281  -0.956  0.00  0.00    +0.037 C 
ATOM     13  C   UNL     1       2.511  -1.504  -1.120  0.00  0.00    +0.048 C 
ATOM     14  C   UNL     1       3.985  -1.106  -1.068  0.00  0.00    +0.194 C 
ATOM     15  F   UNL     1       4.755  -2.254  -1.174  0.00  0.00    -0.241 F 
ATOM     16  C   UNL     1       4.269  -0.340   0.207  0.00  0.00    -0.020 C 
ATOM     17  C   UNL     1       5.284  -0.709   1.009  0.00  0.00    +0.054 C 
ATOM     18  C   UNL     1       5.549  -0.006   2.262  0.00  0.00    +0.179 C 
ATOM     19  O   UNL     1       6.500  -0.369   3.001  0.00  0.00    -0.288 OA
ATOM     20  C   UNL     1       4.686   1.100   2.666  0.00  0.00    +0.047 C 
ATOM     21  C   UNL     1       3.678   1.491   1.888  0.00  0.00    -0.009 C 
ATOM     22  C   UNL     1       3.409   0.906   0.498  0.00  0.00    +0.047 C 
ATOM     23  C   UNL     1       3.824   1.999  -0.520  0.00  0.00    +0.023 C 
ENDROOT
BRANCH   5  24
ATOM     24  C   UNL     1      -3.404   0.580  -1.415  0.00  0.00    +0.236 C 
ATOM     25  O   UNL     1      -4.461   0.054  -1.672  0.00  0.00    -0.281 OA
BRANCH  24  26
ATOM     26  S   UNL     1      -5.164   0.123  -1.735  0.00  0.00    -0.051 S 
BRANCH  26  27
ATOM     27  C   UNL     1      -6.138   1.284  -0.532  0.00  0.00    +0.290 C 
ATOM     28  F   UNL     1      -5.552   2.538  -0.489  0.00  0.00    -0.237 F 
ENDBRANCH  26  27
ENDBRANCH  24  26
ENDBRANCH   5  24
BRANCH   9  29
ATOM     29  O   UNL     1       1.087   2.740  -0.145  0.00  0.00    -0.389 OA
ATOM     30  H   UNL     1       0.586   3.499   0.254  0.00  0.00    +0.210 HD
ENDBRANCH   9  29
BRANCH   5  31
ATOM     31  O   UNL     1      -2.590  -1.020   0.233  0.00  0.00    -0.449 OA
BRANCH  31  32
ATOM     32  C   UNL     1      -3.231  -0.483   1.361  0.00  0.00    +0.308 C 
ATOM     33  O   UNL     1      -3.582   0.728   1.401  0.00  0.00    -0.251 OA
BRANCH  32  34
ATOM     34  C   UNL     1      -3.481  -1.365   2.543  0.00  0.00    +0.117 C 
ATOM     35  C   UNL     1      -2.676  -0.895   3.751  0.00  0.00    +0.015 C 
ENDBRANCH  32  34
ENDBRANCH  31  32
ENDBRANCH   5  31
TORSDOF 7
