REMARK  Name = 
REMARK  6 active torsions:
REMARK  status: ('A' for Active; 'I' for Inactive)
REMARK    1  A    between atoms: C_1  and  C_2
REMARK    2  A    between atoms: C_2  and  C_3
REMARK    3  A    between atoms: C_2  and  C_4
REMARK    4  A    between atoms: N_6  and  C_7
REMARK    5  A    between atoms: C_9  and  C_16
REMARK    6  A    between atoms: C_10  and  N_13
REMARK                            x       y       z     vdW  Elec       q    Type
REMARK                         _______ _______ _______ _____ _____    ______ ____
ROOT
ATOM      1  C   UNL     1       0.346  -0.599  -0.094  0.00  0.00    +0.034 A 
ATOM      2  C   UNL     1       1.180   0.502   0.157  0.00  0.00    +0.038 A 
ATOM      3  C   UNL     1       2.576   0.347   0.280  0.00  0.00    +0.087 A 
ATOM      4  C   UNL     1       3.140  -0.946   0.101  0.00  0.00    +0.138 A 
ATOM      5  C   UNL     1       2.290  -2.045  -0.103  0.00  0.00    +0.035 A 
ATOM      6  C   UNL     1       0.910  -1.874  -0.191  0.00  0.00    +0.025 A 
ENDROOT
BRANCH   1   9
ATOM      7  C   UNL     1      -1.734   0.690  -0.770  0.00  0.00    +0.220 C 
ATOM      8  O   UNL     1      -1.077   1.506  -1.472  0.00  0.00    -0.275 OA
ATOM      9  N   UNL     1      -1.082  -0.452  -0.187  0.00  0.00    -0.285 N 
ATOM     10  H   UNL     1      -1.674  -1.260   0.111  0.00  0.00    +0.155 HD
BRANCH   7  12
ATOM     11  C   UNL     1      -3.615   0.896   0.872  0.00  0.00    +0.017 C 
ATOM     12  C   UNL     1      -3.218   0.896  -0.608  0.00  0.00    +0.069 C 
ATOM     13  C   UNL     1      -4.002  -0.163  -1.391  0.00  0.00    +0.017 C 
ENDBRANCH   7  12
ENDBRANCH   1   9
BRANCH   3  14
ATOM     14  C   UNL     1       3.432   1.560   0.591  0.00  0.00    +0.420 C 
ATOM     15  F   UNL     1       4.403   1.239   1.523  0.00  0.00    -0.166 F 
ATOM     16  F   UNL     1       2.675   2.593   1.116  0.00  0.00    -0.166 F 
ATOM     17  F   UNL     1       4.037   2.007  -0.569  0.00  0.00    -0.166 F 
ENDBRANCH   3  14
BRANCH   4  18
ATOM     18  N   UNL     1       4.561  -1.171   0.129  0.00  0.00    +0.057 N 
ATOM     19  O   UNL     1       5.058  -2.356   0.620  0.00  0.00    -0.126 OA
ATOM     20  O   UNL     1       5.336  -0.398  -0.470  0.00  0.00    -0.126 OA
ENDBRANCH   4  18
TORSDOF 4
