REMARK  Name = 
REMARK  10 active torsions:
REMARK  status: ('A' for Active; 'I' for Inactive)
REMARK    1  A    between atoms: C_3  and  C_4
REMARK    2  A    between atoms: C_5  and  O_6
REMARK    3  A    between atoms: C_5  and  C_14
REMARK    4  A    between atoms: O_6  and  C_7
REMARK    5  A    between atoms: C_7  and  C_9
REMARK    6  A    between atoms: C_14  and  S_16
REMARK    7  A    between atoms: S_16  and  C_17
REMARK    8  A    between atoms: C_19  and  C_20
REMARK    9  A    between atoms: C_22  and  O_23
REMARK   10  A    between atoms: C_36  and  C_37
REMARK                            x       y       z     vdW  Elec       q    Type
REMARK                         _______ _______ _______ _____ _____    ______ ____
ROOT
ATOM      1  C   UNL     1       0.073   0.629   0.599  0.00  0.00    +0.006 C 
ATOM      2  C   UNL     1      -0.404   1.804   1.445  0.00  0.00    +0.012 C 
ATOM      3  C   UNL     1      -1.948   1.663   1.471  0.00  0.00    +0.039 C 
ATOM      4  C   UNL     1      -2.631   2.915   0.898  0.00  0.00    +0.012 C 
ATOM      5  C   UNL     1      -2.291   0.319   0.725  0.00  0.00    +0.189 C 
ATOM      6  C   UNL     1      -0.950  -0.485   0.869  0.00  0.00    +0.022 C 
ATOM      7  C   UNL     1      -0.828  -1.087   2.311  0.00  0.00    +0.016 C 
ATOM      8  C   UNL     1      -0.725  -1.600  -0.192  0.00  0.00    +0.046 C 
ATOM      9  C   UNL     1       0.740  -2.125  -0.228  0.00  0.00    +0.154 C 
ATOM     10  C   UNL     1       1.803  -0.969  -0.344  0.00  0.00    +0.153 C 
ATOM     11  F   UNL     1       1.593  -0.404  -1.600  0.00  0.00    -0.238 F 
ATOM     12  C   UNL     1       1.544   0.165   0.719  0.00  0.00    +0.037 C 
ATOM     13  C   UNL     1       2.500   1.358   0.495  0.00  0.00    +0.048 C 
ATOM     14  C   UNL     1       3.965   0.926   0.531  0.00  0.00    +0.194 C 
ATOM     15  F   UNL     1       4.760   2.033   0.275  0.00  0.00    -0.241 F 
ATOM     16  C   UNL     1       4.193  -0.189  -0.469  0.00  0.00    -0.020 C 
ATOM     17  C   UNL     1       5.128  -0.063  -1.428  0.00  0.00    +0.054 C 
ATOM     18  C   UNL     1       5.317  -1.101  -2.440  0.00  0.00    +0.179 C 
ATOM     19  O   UNL     1       6.199  -0.970  -3.327  0.00  0.00    -0.288 OA
ATOM     20  C   UNL     1       4.465  -2.285  -2.426  0.00  0.00    +0.047 C 
ATOM     21  C   UNL     1       3.537  -2.442  -1.482  0.00  0.00    -0.009 C 
ATOM     22  C   UNL     1       3.314  -1.449  -0.338  0.00  0.00    +0.047 C 
ATOM     23  C   UNL     1       3.744  -2.180   0.960  0.00  0.00    +0.023 C 
ENDROOT
BRANCH   5  24
ATOM     24  C   UNL     1      -3.497  -0.435   1.298  0.00  0.00    +0.236 C 
ATOM     25  O   UNL     1      -3.716  -1.578   0.925  0.00  0.00    -0.281 OA
BRANCH  24  26
ATOM     26  S   UNL     1      -4.730   0.358   2.354  0.00  0.00    -0.051 S 
BRANCH  26  27
ATOM     27  C   UNL     1      -4.241  -0.482   3.893  0.00  0.00    +0.290 C 
ATOM     28  F   UNL     1      -3.071   0.059   4.387  0.00  0.00    -0.237 F 
ENDBRANCH  26  27
ENDBRANCH  24  26
ENDBRANCH   5  24
BRANCH   9  29
ATOM     29  O   UNL     1       0.988  -2.945   0.883  0.00  0.00    -0.389 OA
ATOM     30  H   UNL     1       0.500  -3.797   0.733  0.00  0.00    +0.210 HD
ENDBRANCH   9  29
BRANCH   5  31
ATOM     31  O   UNL     1      -2.492   0.573  -0.681  0.00  0.00    -0.443 OA
BRANCH  31  32
ATOM     32  C   UNL     1      -3.666   0.991  -1.330  0.00  0.00    +0.376 C 
ATOM     33  O   UNL     1      -4.782   0.973  -0.751  0.00  0.00    -0.241 OA
BRANCH  32  34
ATOM     34  C   UNL     1      -3.580   1.466  -2.711  0.00  0.00    +0.211 A 
ATOM     35  C   UNL     1      -2.421   1.579  -3.453  0.00  0.00    +0.056 A 
ATOM     36  C   UNL     1      -2.814   2.082  -4.673  0.00  0.00    +0.042 A 
ATOM     37  C   UNL     1      -4.183   2.243  -4.600  0.00  0.00    +0.196 A 
ATOM     38  O   UNL     1      -4.611   1.866  -3.419  0.00  0.00    -0.456 OA
ENDBRANCH  32  34
ENDBRANCH  31  32
ENDBRANCH   5  31
TORSDOF 7
