REMARK  Name = 
REMARK  13 active torsions:
REMARK  status: ('A' for Active; 'I' for Inactive)
REMARK    1  A    between atoms: C_1  and  C_2
REMARK    2  A    between atoms: C_2  and  C_3
REMARK    3  A    between atoms: C_2  and  N_4
REMARK    4  A    between atoms: C_5  and  C_6
REMARK    5  A    between atoms: C_7  and  C_8
REMARK    6  A    between atoms: C_8  and  O_9
REMARK    7  A    between atoms: C_8  and  C_10
REMARK    8  A    between atoms: C_10  and  C_11
REMARK    9  A    between atoms: C_11  and  O_12
REMARK   10  A    between atoms: C_11  and  C_13
REMARK   11  A    between atoms: C_13  and  C_14
REMARK   12  A    between atoms: C_14  and  O_15
REMARK   13  A    between atoms: C_17  and  C_18
REMARK                            x       y       z     vdW  Elec       q    Type
REMARK                         _______ _______ _______ _____ _____    ______ ____
ROOT
ATOM      1  N   UNL     1      -0.768   1.278   0.020  0.00  0.00    -0.337 N 
ATOM      2  C   UNL     1      -0.828  -0.087  -0.053  0.00  0.00    +0.051 A 
ATOM      3  C   UNL     1      -2.116  -0.507  -0.381  0.00  0.00    +0.015 A 
ATOM      4  C   UNL     1      -2.871   0.641  -0.476  0.00  0.00    +0.008 A 
ATOM      5  C   UNL     1      -4.223   0.810  -0.781  0.00  0.00    +0.010 A 
ATOM      6  C   UNL     1      -4.732   2.117  -0.824  0.00  0.00    +0.001 A 
ATOM      7  C   UNL     1      -3.889   3.216  -0.570  0.00  0.00    +0.002 A 
ATOM      8  C   UNL     1      -2.529   3.020  -0.274  0.00  0.00    +0.026 A 
ATOM      9  C   UNL     1      -2.034   1.707  -0.234  0.00  0.00    +0.050 A 
ENDROOT
BRANCH   3  10
ATOM     10  C   UNL     1      -2.600  -1.896  -0.523  0.00  0.00    -0.015 A 
ATOM     11  C   UNL     1      -3.677  -2.352   0.254  0.00  0.00    +0.011 A 
ATOM     12  C   UNL     1      -4.136  -3.666   0.119  0.00  0.00    +0.039 A 
ATOM     13  C   UNL     1      -3.525  -4.531  -0.794  0.00  0.00    +0.123 A 
ATOM     14  F   UNL     1      -3.972  -5.804  -0.924  0.00  0.00    -0.205 F 
ATOM     15  C   UNL     1      -2.458  -4.081  -1.576  0.00  0.00    +0.039 A 
ATOM     16  C   UNL     1      -1.996  -2.768  -1.443  0.00  0.00    +0.011 A 
ENDBRANCH   3  10
BRANCH   1  18
ATOM     17  C   UNL     1       0.393   2.903   1.513  0.00  0.00    +0.030 C 
ATOM     18  C   UNL     1       0.453   2.090   0.215  0.00  0.00    +0.082 C 
ATOM     19  C   UNL     1       0.758   2.961  -1.010  0.00  0.00    +0.030 C 
ENDBRANCH   1  18
BRANCH   2  20
ATOM     20  C   UNL     1       0.277  -1.019   0.262  0.00  0.00    +0.025 C 
ATOM     21  C   UNL     1       0.983  -0.921   1.391  0.00  0.00    +0.006 C 
BRANCH  21  22
ATOM     22  C   UNL     1       2.025  -1.945   1.769  0.00  0.00    +0.140 C 
BRANCH  22  23
ATOM     23  O   UNL     1       2.499  -1.696   3.067  0.00  0.00    -0.388 OA
ATOM     24  H   UNL     1       1.766  -1.936   3.694  0.00  0.00    +0.210 HD
ENDBRANCH  22  23
BRANCH  22  25
ATOM     25  C   UNL     1       3.216  -1.996   0.783  0.00  0.00    +0.067 C 
BRANCH  25  26
ATOM     26  C   UNL     1       3.804  -0.633   0.340  0.00  0.00    +0.128 C 
BRANCH  26  27
ATOM     27  O   UNL     1       4.898  -0.867  -0.510  0.00  0.00    -0.391 OA
ATOM     28  H   UNL     1       4.527  -1.132  -1.393  0.00  0.00    +0.210 HD
ENDBRANCH  26  27
BRANCH  26  29
ATOM     29  C   UNL     1       4.269   0.226   1.528  0.00  0.00    +0.151 C 
BRANCH  29  30
ATOM     30  C   UNL     1       4.874   1.513   1.057  0.00  0.00    +0.307 C 
ATOM     31  O   UNL     1       6.125   1.632   0.976  0.00  0.00    -0.251 OA
BRANCH  30  32
ATOM     32  O   UNL     1       4.048   2.566   0.676  0.00  0.00    -0.481 OA
ATOM     33  H   UNL     1       4.438   3.441   0.348  0.00  0.00    +0.295 HD
ENDBRANCH  30  32
ENDBRANCH  29  30
ENDBRANCH  26  29
ENDBRANCH  25  26
ENDBRANCH  22  25
ENDBRANCH  21  22
ENDBRANCH   2  20
TORSDOF 11
