REMARK  Name = 
REMARK  11 active torsions:
REMARK  status: ('A' for Active; 'I' for Inactive)
REMARK    1  A    between atoms: C_8  and  C_9
REMARK    2  A    between atoms: C_9  and  N_10
REMARK    3  A    between atoms: N_10  and  C_11
REMARK    4  A    between atoms: C_14  and  C_17
REMARK    5  A    between atoms: N_19  and  CA_20
REMARK    6  A    between atoms: CA_20  and  CB_21
REMARK    7  A    between atoms: CA_20  and  C_26
REMARK    8  A    between atoms: CB_21  and  CG_22
REMARK    9  A    between atoms: CG_22  and  CD_23
REMARK   10  A    between atoms: CD_23  and  OE1_24
REMARK   11  A    between atoms: C_26  and  O_27
REMARK                            x       y       z     vdW  Elec       q    Type
REMARK                         _______ _______ _______ _____ _____    ______ ____
ROOT
ATOM      1  C   UNK A   0       0.522   0.549  -0.564  0.00  0.00    +0.027 A 
ATOM      2  C   UNK A   0      -0.356  -0.017   0.372  0.00  0.00    +0.023 A 
ATOM      3  C   UNK A   0      -1.722   0.276   0.339  0.00  0.00    +0.015 A 
ATOM      4  C   UNK A   0      -2.240   1.149  -0.634  0.00  0.00    +0.037 A 
ATOM      5  C   UNK A   0      -1.364   1.704  -1.583  0.00  0.00    +0.015 A 
ATOM      6  C   UNK A   0       0.003   1.413  -1.546  0.00  0.00    +0.023 A 
ENDROOT
BRANCH   4   7
ATOM      7  C   UNK A   0      -3.688   1.460  -0.683  0.00  0.00    +0.245 C 
ATOM      8  O   UNK A   0      -4.207   1.822  -1.774  0.00  0.00    -0.270 OA
ATOM      9  N   GLU A   1      -4.505   1.361   0.495  0.00  0.00    -0.298 N 
ATOM     10  H   GLU A   1      -4.033   1.325   1.426  0.00  0.00    +0.150 HD
BRANCH   9  11
ATOM     11  CA  GLU A   1      -5.973   1.360   0.429  0.00  0.00    +0.182 C 
BRANCH  11  12
ATOM     12  C   GLU A   1      -6.577   1.603   1.789  0.00  0.00    +0.325 C 
ATOM     13  OXT GLU A   1      -7.578   2.361   1.903  0.00  0.00    -0.249 OA
BRANCH  12  14
ATOM     14  O   GLU A   1      -6.066   0.966   2.917  0.00  0.00    -0.479 OA
ATOM     15  H   GLU A   1      -6.480   1.111   3.830  0.00  0.00    +0.295 HD
ENDBRANCH  12  14
ENDBRANCH  11  12
BRANCH  11  16
ATOM     16  CB  GLU A   1      -6.504   0.050  -0.192  0.00  0.00    +0.045 C 
BRANCH  16  17
ATOM     17  CG  GLU A   1      -5.989  -1.218   0.507  0.00  0.00    +0.123 C 
BRANCH  17  18
ATOM     18  CD  GLU A   1      -6.504  -2.443  -0.180  0.00  0.00    +0.305 C 
ATOM     19  OE2 GLU A   1      -7.384  -3.155   0.374  0.00  0.00    -0.251 OA
BRANCH  18  20
ATOM     20  OE1 GLU A   1      -6.014  -2.791  -1.435  0.00  0.00    -0.481 OA
ATOM     21  HE1 GLU A   1      -6.360  -3.612  -1.918  0.00  0.00    +0.295 HD
ENDBRANCH  18  20
ENDBRANCH  17  18
ENDBRANCH  16  17
ENDBRANCH  11  16
ENDBRANCH   9  11
ENDBRANCH   4   7
BRANCH   1  22
ATOM     22  N   UNK A   0       1.923   0.225  -0.499  0.00  0.00    -0.338 N 
ATOM     23  H   UNK A   0       2.236  -0.455   0.232  0.00  0.00    +0.146 HD
BRANCH  22  24
ATOM     24  C   UNK A   0       2.928   0.813  -1.388  0.00  0.00    +0.158 C 
BRANCH  24  32
ATOM     25  N   UNK A   0       9.978  -1.073   1.409  0.00  0.00    -0.329 N 
ATOM     26  C   UNK A   0       8.695  -0.571   1.035  0.00  0.00    +0.195 A 
ATOM     27  N   UNK A   0       8.180   0.510   1.683  0.00  0.00    -0.176 NA
ATOM     28  C   UNK A   0       6.965   1.020   1.352  0.00  0.00    +0.302 A 
ATOM     29  O   UNK A   0       6.517   2.021   1.971  0.00  0.00    -0.263 OA
ATOM     30  C   UNK A   0       6.225   0.425   0.327  0.00  0.00    +0.173 A 
ATOM     31  N   UNK A   0       5.003   0.894  -0.042  0.00  0.00    -0.240 NA
ATOM     32  C   UNK A   0       4.297   0.303  -1.044  0.00  0.00    +0.077 A 
ATOM     33  C   UNK A   0       4.832  -0.823  -1.689  0.00  0.00    +0.138 A 
ATOM     34  N   UNK A   0       6.054  -1.291  -1.321  0.00  0.00    -0.234 NA
ATOM     35  C   UNK A   0       6.766  -0.692  -0.329  0.00  0.00    +0.164 A 
ATOM     36  N   UNK A   0       7.987  -1.169   0.034  0.00  0.00    -0.311 N 
ATOM     37  H   UNK A   0      10.399  -1.890   0.911  0.00  0.00    +0.145 HD
ATOM     38  H   UNK A   0      10.514  -0.623   2.184  0.00  0.00    +0.145 HD
ATOM     39  H   UNK A   0       8.385  -2.001  -0.458  0.00  0.00    +0.170 HD
ENDBRANCH  24  32
ENDBRANCH  22  24
ENDBRANCH   1  22
TORSDOF 11
