REMARK  Name = 
REMARK  1 active torsions:
REMARK  status: ('A' for Active; 'I' for Inactive)
REMARK    1  A    between atoms: C_1  and  C_2
REMARK                            x       y       z     vdW  Elec       q    Type
REMARK                         _______ _______ _______ _____ _____    ______ ____
ROOT
ATOM      1  C   UNL     1      -1.719  -0.202   0.006  0.00  0.00    +0.047 C 
ATOM      2  C   UNL     1      -0.250   0.057  -0.054  0.00  0.00    -0.013 A 
ATOM      3  C   UNL     1       0.763  -0.873   0.020  0.00  0.00    +0.108 A 
ATOM      4  N   UNL     1       1.935  -0.214   0.020  0.00  0.00    -0.284 N 
ATOM      5  N   UNL     1       1.715   1.091  -0.034  0.00  0.00    -0.182 NA
ATOM      6  C   UNL     1       0.382   1.284  -0.073  0.00  0.00    +0.137 A 
ATOM      7  H   UNL     1       2.883  -0.648   0.068  0.00  0.00    +0.188 HD
ENDROOT
TORSDOF 0
