REMARK  Name = 
REMARK  39 active torsions:
REMARK  status: ('A' for Active; 'I' for Inactive)
REMARK    1  A    between atoms: C_11  and  O_12
REMARK    2  A    between atoms: O_12  and  C_13
REMARK    3  A    between atoms: C_15  and  C_16
REMARK    4  A    between atoms: C_16  and  O_17
REMARK    5  A    between atoms: O_17  and  S_18
REMARK    6  A    between atoms: C_22  and  O_23
REMARK    7  A    between atoms: O_23  and  C_24
REMARK    8  A    between atoms: C_26  and  C_91
REMARK    9  A    between atoms: C_27  and  O_28
REMARK   10  A    between atoms: O_28  and  C_29
REMARK   11  A    between atoms: C_31  and  C_32
REMARK   12  A    between atoms: C_32  and  O_33
REMARK   13  A    between atoms: O_33  and  S_34
REMARK   14  A    between atoms: C_38  and  O_39
REMARK   15  A    between atoms: O_39  and  C_40
REMARK   16  A    between atoms: C_42  and  C_68
REMARK   17  A    between atoms: C_43  and  O_44
REMARK   18  A    between atoms: O_44  and  C_45
REMARK   19  A    between atoms: C_47  and  C_48
REMARK   20  A    between atoms: C_48  and  O_49
REMARK   21  A    between atoms: O_49  and  S_50
REMARK   22  A    between atoms: C_54  and  O_55
REMARK   23  A    between atoms: C_56  and  O_57
REMARK   24  A    between atoms: C_58  and  N_59
REMARK   25  A    between atoms: N_59  and  S_60
REMARK   26  A    between atoms: C_64  and  O_65
REMARK   27  A    between atoms: C_66  and  O_67
REMARK   28  A    between atoms: C_68  and  O_69
REMARK   29  A    between atoms: C_71  and  O_72
REMARK   30  A    between atoms: O_72  and  S_73
REMARK   31  A    between atoms: C_77  and  N_78
REMARK   32  A    between atoms: N_78  and  S_79
REMARK   33  A    between atoms: C_83  and  O_84
REMARK   34  A    between atoms: C_85  and  O_86
REMARK   35  A    between atoms: O_86  and  S_87
REMARK   36  A    between atoms: C_91  and  O_92
REMARK   37  A    between atoms: C_94  and  O_95
REMARK   38  A    between atoms: C_96  and  N_97
REMARK   39  A    between atoms: N_97  and  S_98
REMARK                            x       y       z     vdW  Elec       q    Type
REMARK                         _______ _______ _______ _____ _____    ______ ____
ROOT
ATOM      1 NA   UNL     1       2.586  -1.859   1.000  0.00  0.00    +0.000 Na
ENDROOT
TORSDOF 0
REMARK  Name = 
REMARK  39 active torsions:
REMARK  status: ('A' for Active; 'I' for Inactive)
REMARK    1  A    between atoms: C_11  and  O_12
REMARK    2  A    between atoms: O_12  and  C_13
REMARK    3  A    between atoms: C_15  and  C_16
REMARK    4  A    between atoms: C_16  and  O_17
REMARK    5  A    between atoms: O_17  and  S_18
REMARK    6  A    between atoms: C_22  and  O_23
REMARK    7  A    between atoms: O_23  and  C_24
REMARK    8  A    between atoms: C_26  and  C_91
REMARK    9  A    between atoms: C_27  and  O_28
REMARK   10  A    between atoms: O_28  and  C_29
REMARK   11  A    between atoms: C_31  and  C_32
REMARK   12  A    between atoms: C_32  and  O_33
REMARK   13  A    between atoms: O_33  and  S_34
REMARK   14  A    between atoms: C_38  and  O_39
REMARK   15  A    between atoms: O_39  and  C_40
REMARK   16  A    between atoms: C_42  and  C_68
REMARK   17  A    between atoms: C_43  and  O_44
REMARK   18  A    between atoms: O_44  and  C_45
REMARK   19  A    between atoms: C_47  and  C_48
REMARK   20  A    between atoms: C_48  and  O_49
REMARK   21  A    between atoms: O_49  and  S_50
REMARK   22  A    between atoms: C_54  and  O_55
REMARK   23  A    between atoms: C_56  and  O_57
REMARK   24  A    between atoms: C_58  and  N_59
REMARK   25  A    between atoms: N_59  and  S_60
REMARK   26  A    between atoms: C_64  and  O_65
REMARK   27  A    between atoms: C_66  and  O_67
REMARK   28  A    between atoms: C_68  and  O_69
REMARK   29  A    between atoms: C_71  and  O_72
REMARK   30  A    between atoms: O_72  and  S_73
REMARK   31  A    between atoms: C_77  and  N_78
REMARK   32  A    between atoms: N_78  and  S_79
REMARK   33  A    between atoms: C_83  and  O_84
REMARK   34  A    between atoms: C_85  and  O_86
REMARK   35  A    between atoms: O_86  and  S_87
REMARK   36  A    between atoms: C_91  and  O_92
REMARK   37  A    between atoms: C_94  and  O_95
REMARK   38  A    between atoms: C_96  and  N_97
REMARK   39  A    between atoms: N_97  and  S_98
REMARK                            x       y       z     vdW  Elec       q    Type
REMARK                         _______ _______ _______ _____ _____    ______ ____
ROOT
ATOM      1 NA   UNL     1       1.373   2.496  -0.181  0.00  0.00    +0.000 Na
ENDROOT
TORSDOF 0
REMARK  Name = 
REMARK  39 active torsions:
REMARK  status: ('A' for Active; 'I' for Inactive)
REMARK    1  A    between atoms: C_11  and  O_12
REMARK    2  A    between atoms: O_12  and  C_13
REMARK    3  A    between atoms: C_15  and  C_16
REMARK    4  A    between atoms: C_16  and  O_17
REMARK    5  A    between atoms: O_17  and  S_18
REMARK    6  A    between atoms: C_22  and  O_23
REMARK    7  A    between atoms: O_23  and  C_24
REMARK    8  A    between atoms: C_26  and  C_91
REMARK    9  A    between atoms: C_27  and  O_28
REMARK   10  A    between atoms: O_28  and  C_29
REMARK   11  A    between atoms: C_31  and  C_32
REMARK   12  A    between atoms: C_32  and  O_33
REMARK   13  A    between atoms: O_33  and  S_34
REMARK   14  A    between atoms: C_38  and  O_39
REMARK   15  A    between atoms: O_39  and  C_40
REMARK   16  A    between atoms: C_42  and  C_68
REMARK   17  A    between atoms: C_43  and  O_44
REMARK   18  A    between atoms: O_44  and  C_45
REMARK   19  A    between atoms: C_47  and  C_48
REMARK   20  A    between atoms: C_48  and  O_49
REMARK   21  A    between atoms: O_49  and  S_50
REMARK   22  A    between atoms: C_54  and  O_55
REMARK   23  A    between atoms: C_56  and  O_57
REMARK   24  A    between atoms: C_58  and  N_59
REMARK   25  A    between atoms: N_59  and  S_60
REMARK   26  A    between atoms: C_64  and  O_65
REMARK   27  A    between atoms: C_66  and  O_67
REMARK   28  A    between atoms: C_68  and  O_69
REMARK   29  A    between atoms: C_71  and  O_72
REMARK   30  A    between atoms: O_72  and  S_73
REMARK   31  A    between atoms: C_77  and  N_78
REMARK   32  A    between atoms: N_78  and  S_79
REMARK   33  A    between atoms: C_83  and  O_84
REMARK   34  A    between atoms: C_85  and  O_86
REMARK   35  A    between atoms: O_86  and  S_87
REMARK   36  A    between atoms: C_91  and  O_92
REMARK   37  A    between atoms: C_94  and  O_95
REMARK   38  A    between atoms: C_96  and  N_97
REMARK   39  A    between atoms: N_97  and  S_98
REMARK                            x       y       z     vdW  Elec       q    Type
REMARK                         _______ _______ _______ _____ _____    ______ ____
ROOT
ATOM      1 NA   UNL     1      -0.449   1.459   1.369  0.00  0.00    +0.000 Na
ENDROOT
TORSDOF 0
REMARK  Name = 
REMARK  39 active torsions:
REMARK  status: ('A' for Active; 'I' for Inactive)
REMARK    1  A    between atoms: C_11  and  O_12
REMARK    2  A    between atoms: O_12  and  C_13
REMARK    3  A    between atoms: C_15  and  C_16
REMARK    4  A    between atoms: C_16  and  O_17
REMARK    5  A    between atoms: O_17  and  S_18
REMARK    6  A    between atoms: C_22  and  O_23
REMARK    7  A    between atoms: O_23  and  C_24
REMARK    8  A    between atoms: C_26  and  C_91
REMARK    9  A    between atoms: C_27  and  O_28
REMARK   10  A    between atoms: O_28  and  C_29
REMARK   11  A    between atoms: C_31  and  C_32
REMARK   12  A    between atoms: C_32  and  O_33
REMARK   13  A    between atoms: O_33  and  S_34
REMARK   14  A    between atoms: C_38  and  O_39
REMARK   15  A    between atoms: O_39  and  C_40
REMARK   16  A    between atoms: C_42  and  C_68
REMARK   17  A    between atoms: C_43  and  O_44
REMARK   18  A    between atoms: O_44  and  C_45
REMARK   19  A    between atoms: C_47  and  C_48
REMARK   20  A    between atoms: C_48  and  O_49
REMARK   21  A    between atoms: O_49  and  S_50
REMARK   22  A    between atoms: C_54  and  O_55
REMARK   23  A    between atoms: C_56  and  O_57
REMARK   24  A    between atoms: C_58  and  N_59
REMARK   25  A    between atoms: N_59  and  S_60
REMARK   26  A    between atoms: C_64  and  O_65
REMARK   27  A    between atoms: C_66  and  O_67
REMARK   28  A    between atoms: C_68  and  O_69
REMARK   29  A    between atoms: C_71  and  O_72
REMARK   30  A    between atoms: O_72  and  S_73
REMARK   31  A    between atoms: C_77  and  N_78
REMARK   32  A    between atoms: N_78  and  S_79
REMARK   33  A    between atoms: C_83  and  O_84
REMARK   34  A    between atoms: C_85  and  O_86
REMARK   35  A    between atoms: O_86  and  S_87
REMARK   36  A    between atoms: C_91  and  O_92
REMARK   37  A    between atoms: C_94  and  O_95
REMARK   38  A    between atoms: C_96  and  N_97
REMARK   39  A    between atoms: N_97  and  S_98
REMARK                            x       y       z     vdW  Elec       q    Type
REMARK                         _______ _______ _______ _____ _____    ______ ____
ROOT
ATOM      1 NA   UNL     1       0.349  -1.025   2.035  0.00  0.00    +0.000 Na
ENDROOT
TORSDOF 0
REMARK  Name = 
REMARK  39 active torsions:
REMARK  status: ('A' for Active; 'I' for Inactive)
REMARK    1  A    between atoms: C_11  and  O_12
REMARK    2  A    between atoms: O_12  and  C_13
REMARK    3  A    between atoms: C_15  and  C_16
REMARK    4  A    between atoms: C_16  and  O_17
REMARK    5  A    between atoms: O_17  and  S_18
REMARK    6  A    between atoms: C_22  and  O_23
REMARK    7  A    between atoms: O_23  and  C_24
REMARK    8  A    between atoms: C_26  and  C_91
REMARK    9  A    between atoms: C_27  and  O_28
REMARK   10  A    between atoms: O_28  and  C_29
REMARK   11  A    between atoms: C_31  and  C_32
REMARK   12  A    between atoms: C_32  and  O_33
REMARK   13  A    between atoms: O_33  and  S_34
REMARK   14  A    between atoms: C_38  and  O_39
REMARK   15  A    between atoms: O_39  and  C_40
REMARK   16  A    between atoms: C_42  and  C_68
REMARK   17  A    between atoms: C_43  and  O_44
REMARK   18  A    between atoms: O_44  and  C_45
REMARK   19  A    between atoms: C_47  and  C_48
REMARK   20  A    between atoms: C_48  and  O_49
REMARK   21  A    between atoms: O_49  and  S_50
REMARK   22  A    between atoms: C_54  and  O_55
REMARK   23  A    between atoms: C_56  and  O_57
REMARK   24  A    between atoms: C_58  and  N_59
REMARK   25  A    between atoms: N_59  and  S_60
REMARK   26  A    between atoms: C_64  and  O_65
REMARK   27  A    between atoms: C_66  and  O_67
REMARK   28  A    between atoms: C_68  and  O_69
REMARK   29  A    between atoms: C_71  and  O_72
REMARK   30  A    between atoms: O_72  and  S_73
REMARK   31  A    between atoms: C_77  and  N_78
REMARK   32  A    between atoms: N_78  and  S_79
REMARK   33  A    between atoms: C_83  and  O_84
REMARK   34  A    between atoms: C_85  and  O_86
REMARK   35  A    between atoms: O_86  and  S_87
REMARK   36  A    between atoms: C_91  and  O_92
REMARK   37  A    between atoms: C_94  and  O_95
REMARK   38  A    between atoms: C_96  and  N_97
REMARK   39  A    between atoms: N_97  and  S_98
REMARK                            x       y       z     vdW  Elec       q    Type
REMARK                         _______ _______ _______ _____ _____    ______ ____
ROOT
ATOM      1 NA   UNL     1       2.866  -0.667  -1.262  0.00  0.00    +0.000 Na
ENDROOT
TORSDOF 0
REMARK  Name = 
REMARK  39 active torsions:
REMARK  status: ('A' for Active; 'I' for Inactive)
REMARK    1  A    between atoms: C_11  and  O_12
REMARK    2  A    between atoms: O_12  and  C_13
REMARK    3  A    between atoms: C_15  and  C_16
REMARK    4  A    between atoms: C_16  and  O_17
REMARK    5  A    between atoms: O_17  and  S_18
REMARK    6  A    between atoms: C_22  and  O_23
REMARK    7  A    between atoms: O_23  and  C_24
REMARK    8  A    between atoms: C_26  and  C_91
REMARK    9  A    between atoms: C_27  and  O_28
REMARK   10  A    between atoms: O_28  and  C_29
REMARK   11  A    between atoms: C_31  and  C_32
REMARK   12  A    between atoms: C_32  and  O_33
REMARK   13  A    between atoms: O_33  and  S_34
REMARK   14  A    between atoms: C_38  and  O_39
REMARK   15  A    between atoms: O_39  and  C_40
REMARK   16  A    between atoms: C_42  and  C_68
REMARK   17  A    between atoms: C_43  and  O_44
REMARK   18  A    between atoms: O_44  and  C_45
REMARK   19  A    between atoms: C_47  and  C_48
REMARK   20  A    between atoms: C_48  and  O_49
REMARK   21  A    between atoms: O_49  and  S_50
REMARK   22  A    between atoms: C_54  and  O_55
REMARK   23  A    between atoms: C_56  and  O_57
REMARK   24  A    between atoms: C_58  and  N_59
REMARK   25  A    between atoms: N_59  and  S_60
REMARK   26  A    between atoms: C_64  and  O_65
REMARK   27  A    between atoms: C_66  and  O_67
REMARK   28  A    between atoms: C_68  and  O_69
REMARK   29  A    between atoms: C_71  and  O_72
REMARK   30  A    between atoms: O_72  and  S_73
REMARK   31  A    between atoms: C_77  and  N_78
REMARK   32  A    between atoms: N_78  and  S_79
REMARK   33  A    between atoms: C_83  and  O_84
REMARK   34  A    between atoms: C_85  and  O_86
REMARK   35  A    between atoms: O_86  and  S_87
REMARK   36  A    between atoms: C_91  and  O_92
REMARK   37  A    between atoms: C_94  and  O_95
REMARK   38  A    between atoms: C_96  and  N_97
REMARK   39  A    between atoms: N_97  and  S_98
REMARK                            x       y       z     vdW  Elec       q    Type
REMARK                         _______ _______ _______ _____ _____    ______ ____
ROOT
ATOM      1 NA   UNL     1      -1.628  -0.868   0.125  0.00  0.00    +0.000 Na
ENDROOT
TORSDOF 0
REMARK  Name = 
REMARK  39 active torsions:
REMARK  status: ('A' for Active; 'I' for Inactive)
REMARK    1  A    between atoms: C_11  and  O_12
REMARK    2  A    between atoms: O_12  and  C_13
REMARK    3  A    between atoms: C_15  and  C_16
REMARK    4  A    between atoms: C_16  and  O_17
REMARK    5  A    between atoms: O_17  and  S_18
REMARK    6  A    between atoms: C_22  and  O_23
REMARK    7  A    between atoms: O_23  and  C_24
REMARK    8  A    between atoms: C_26  and  C_91
REMARK    9  A    between atoms: C_27  and  O_28
REMARK   10  A    between atoms: O_28  and  C_29
REMARK   11  A    between atoms: C_31  and  C_32
REMARK   12  A    between atoms: C_32  and  O_33
REMARK   13  A    between atoms: O_33  and  S_34
REMARK   14  A    between atoms: C_38  and  O_39
REMARK   15  A    between atoms: O_39  and  C_40
REMARK   16  A    between atoms: C_42  and  C_68
REMARK   17  A    between atoms: C_43  and  O_44
REMARK   18  A    between atoms: O_44  and  C_45
REMARK   19  A    between atoms: C_47  and  C_48
REMARK   20  A    between atoms: C_48  and  O_49
REMARK   21  A    between atoms: O_49  and  S_50
REMARK   22  A    between atoms: C_54  and  O_55
REMARK   23  A    between atoms: C_56  and  O_57
REMARK   24  A    between atoms: C_58  and  N_59
REMARK   25  A    between atoms: N_59  and  S_60
REMARK   26  A    between atoms: C_64  and  O_65
REMARK   27  A    between atoms: C_66  and  O_67
REMARK   28  A    between atoms: C_68  and  O_69
REMARK   29  A    between atoms: C_71  and  O_72
REMARK   30  A    between atoms: O_72  and  S_73
REMARK   31  A    between atoms: C_77  and  N_78
REMARK   32  A    between atoms: N_78  and  S_79
REMARK   33  A    between atoms: C_83  and  O_84
REMARK   34  A    between atoms: C_85  and  O_86
REMARK   35  A    between atoms: O_86  and  S_87
REMARK   36  A    between atoms: C_91  and  O_92
REMARK   37  A    between atoms: C_94  and  O_95
REMARK   38  A    between atoms: C_96  and  N_97
REMARK   39  A    between atoms: N_97  and  S_98
REMARK                            x       y       z     vdW  Elec       q    Type
REMARK                         _______ _______ _______ _____ _____    ______ ____
ROOT
ATOM      1 NA   UNL     1       2.607   0.842   1.456  0.00  0.00    +0.000 Na
ENDROOT
TORSDOF 0
REMARK  Name = 
REMARK  39 active torsions:
REMARK  status: ('A' for Active; 'I' for Inactive)
REMARK    1  A    between atoms: C_11  and  O_12
REMARK    2  A    between atoms: O_12  and  C_13
REMARK    3  A    between atoms: C_15  and  C_16
REMARK    4  A    between atoms: C_16  and  O_17
REMARK    5  A    between atoms: O_17  and  S_18
REMARK    6  A    between atoms: C_22  and  O_23
REMARK    7  A    between atoms: O_23  and  C_24
REMARK    8  A    between atoms: C_26  and  C_91
REMARK    9  A    between atoms: C_27  and  O_28
REMARK   10  A    between atoms: O_28  and  C_29
REMARK   11  A    between atoms: C_31  and  C_32
REMARK   12  A    between atoms: C_32  and  O_33
REMARK   13  A    between atoms: O_33  and  S_34
REMARK   14  A    between atoms: C_38  and  O_39
REMARK   15  A    between atoms: O_39  and  C_40
REMARK   16  A    between atoms: C_42  and  C_68
REMARK   17  A    between atoms: C_43  and  O_44
REMARK   18  A    between atoms: O_44  and  C_45
REMARK   19  A    between atoms: C_47  and  C_48
REMARK   20  A    between atoms: C_48  and  O_49
REMARK   21  A    between atoms: O_49  and  S_50
REMARK   22  A    between atoms: C_54  and  O_55
REMARK   23  A    between atoms: C_56  and  O_57
REMARK   24  A    between atoms: C_58  and  N_59
REMARK   25  A    between atoms: N_59  and  S_60
REMARK   26  A    between atoms: C_64  and  O_65
REMARK   27  A    between atoms: C_66  and  O_67
REMARK   28  A    between atoms: C_68  and  O_69
REMARK   29  A    between atoms: C_71  and  O_72
REMARK   30  A    between atoms: O_72  and  S_73
REMARK   31  A    between atoms: C_77  and  N_78
REMARK   32  A    between atoms: N_78  and  S_79
REMARK   33  A    between atoms: C_83  and  O_84
REMARK   34  A    between atoms: C_85  and  O_86
REMARK   35  A    between atoms: O_86  and  S_87
REMARK   36  A    between atoms: C_91  and  O_92
REMARK   37  A    between atoms: C_94  and  O_95
REMARK   38  A    between atoms: C_96  and  N_97
REMARK   39  A    between atoms: N_97  and  S_98
REMARK                            x       y       z     vdW  Elec       q    Type
REMARK                         _______ _______ _______ _____ _____    ______ ____
ROOT
ATOM      1 NA   UNL     1      -0.198   0.408  -1.480  0.00  0.00    +0.000 Na
ENDROOT
TORSDOF 0
REMARK  Name = 
REMARK  39 active torsions:
REMARK  status: ('A' for Active; 'I' for Inactive)
REMARK    1  A    between atoms: C_11  and  O_12
REMARK    2  A    between atoms: O_12  and  C_13
REMARK    3  A    between atoms: C_15  and  C_16
REMARK    4  A    between atoms: C_16  and  O_17
REMARK    5  A    between atoms: O_17  and  S_18
REMARK    6  A    between atoms: C_22  and  O_23
REMARK    7  A    between atoms: O_23  and  C_24
REMARK    8  A    between atoms: C_26  and  C_91
REMARK    9  A    between atoms: C_27  and  O_28
REMARK   10  A    between atoms: O_28  and  C_29
REMARK   11  A    between atoms: C_31  and  C_32
REMARK   12  A    between atoms: C_32  and  O_33
REMARK   13  A    between atoms: O_33  and  S_34
REMARK   14  A    between atoms: C_38  and  O_39
REMARK   15  A    between atoms: O_39  and  C_40
REMARK   16  A    between atoms: C_42  and  C_68
REMARK   17  A    between atoms: C_43  and  O_44
REMARK   18  A    between atoms: O_44  and  C_45
REMARK   19  A    between atoms: C_47  and  C_48
REMARK   20  A    between atoms: C_48  and  O_49
REMARK   21  A    between atoms: O_49  and  S_50
REMARK   22  A    between atoms: C_54  and  O_55
REMARK   23  A    between atoms: C_56  and  O_57
REMARK   24  A    between atoms: C_58  and  N_59
REMARK   25  A    between atoms: N_59  and  S_60
REMARK   26  A    between atoms: C_64  and  O_65
REMARK   27  A    between atoms: C_66  and  O_67
REMARK   28  A    between atoms: C_68  and  O_69
REMARK   29  A    between atoms: C_71  and  O_72
REMARK   30  A    between atoms: O_72  and  S_73
REMARK   31  A    between atoms: C_77  and  N_78
REMARK   32  A    between atoms: N_78  and  S_79
REMARK   33  A    between atoms: C_83  and  O_84
REMARK   34  A    between atoms: C_85  and  O_86
REMARK   35  A    between atoms: O_86  and  S_87
REMARK   36  A    between atoms: C_91  and  O_92
REMARK   37  A    between atoms: C_94  and  O_95
REMARK   38  A    between atoms: C_96  and  N_97
REMARK   39  A    between atoms: N_97  and  S_98
REMARK                            x       y       z     vdW  Elec       q    Type
REMARK                         _______ _______ _______ _____ _____    ______ ____
ROOT
ATOM      1 NA   UNL     1       0.542  -2.269  -0.860  0.00  0.00    +0.000 Na
ENDROOT
TORSDOF 0
REMARK  Name = 
REMARK  39 active torsions:
REMARK  status: ('A' for Active; 'I' for Inactive)
REMARK    1  A    between atoms: C_11  and  O_12
REMARK    2  A    between atoms: O_12  and  C_13
REMARK    3  A    between atoms: C_15  and  C_16
REMARK    4  A    between atoms: C_16  and  O_17
REMARK    5  A    between atoms: O_17  and  S_18
REMARK    6  A    between atoms: C_22  and  O_23
REMARK    7  A    between atoms: O_23  and  C_24
REMARK    8  A    between atoms: C_26  and  C_91
REMARK    9  A    between atoms: C_27  and  O_28
REMARK   10  A    between atoms: O_28  and  C_29
REMARK   11  A    between atoms: C_31  and  C_32
REMARK   12  A    between atoms: C_32  and  O_33
REMARK   13  A    between atoms: O_33  and  S_34
REMARK   14  A    between atoms: C_38  and  O_39
REMARK   15  A    between atoms: O_39  and  C_40
REMARK   16  A    between atoms: C_42  and  C_68
REMARK   17  A    between atoms: C_43  and  O_44
REMARK   18  A    between atoms: O_44  and  C_45
REMARK   19  A    between atoms: C_47  and  C_48
REMARK   20  A    between atoms: C_48  and  O_49
REMARK   21  A    between atoms: O_49  and  S_50
REMARK   22  A    between atoms: C_54  and  O_55
REMARK   23  A    between atoms: C_56  and  O_57
REMARK   24  A    between atoms: C_58  and  N_59
REMARK   25  A    between atoms: N_59  and  S_60
REMARK   26  A    between atoms: C_64  and  O_65
REMARK   27  A    between atoms: C_66  and  O_67
REMARK   28  A    between atoms: C_68  and  O_69
REMARK   29  A    between atoms: C_71  and  O_72
REMARK   30  A    between atoms: O_72  and  S_73
REMARK   31  A    between atoms: C_77  and  N_78
REMARK   32  A    between atoms: N_78  and  S_79
REMARK   33  A    between atoms: C_83  and  O_84
REMARK   34  A    between atoms: C_85  and  O_86
REMARK   35  A    between atoms: O_86  and  S_87
REMARK   36  A    between atoms: C_91  and  O_92
REMARK   37  A    between atoms: C_94  and  O_95
REMARK   38  A    between atoms: C_96  and  N_97
REMARK   39  A    between atoms: N_97  and  S_98
REMARK                            x       y       z     vdW  Elec       q    Type
REMARK                         _______ _______ _______ _____ _____    ______ ____
ROOT
ATOM      1 NA   UNL     1       1.879   1.246  -2.502  0.00  0.00    +0.000 Na
ENDROOT
TORSDOF 0
REMARK  Name = 
REMARK  39 active torsions:
REMARK  status: ('A' for Active; 'I' for Inactive)
REMARK    1  A    between atoms: C_11  and  O_12
REMARK    2  A    between atoms: O_12  and  C_13
REMARK    3  A    between atoms: C_15  and  C_16
REMARK    4  A    between atoms: C_16  and  O_17
REMARK    5  A    between atoms: O_17  and  S_18
REMARK    6  A    between atoms: C_22  and  O_23
REMARK    7  A    between atoms: O_23  and  C_24
REMARK    8  A    between atoms: C_26  and  C_91
REMARK    9  A    between atoms: C_27  and  O_28
REMARK   10  A    between atoms: O_28  and  C_29
REMARK   11  A    between atoms: C_31  and  C_32
REMARK   12  A    between atoms: C_32  and  O_33
REMARK   13  A    between atoms: O_33  and  S_34
REMARK   14  A    between atoms: C_38  and  O_39
REMARK   15  A    between atoms: O_39  and  C_40
REMARK   16  A    between atoms: C_42  and  C_68
REMARK   17  A    between atoms: C_43  and  O_44
REMARK   18  A    between atoms: O_44  and  C_45
REMARK   19  A    between atoms: C_47  and  C_48
REMARK   20  A    between atoms: C_48  and  O_49
REMARK   21  A    between atoms: O_49  and  S_50
REMARK   22  A    between atoms: C_54  and  O_55
REMARK   23  A    between atoms: C_56  and  O_57
REMARK   24  A    between atoms: C_58  and  N_59
REMARK   25  A    between atoms: N_59  and  S_60
REMARK   26  A    between atoms: C_64  and  O_65
REMARK   27  A    between atoms: C_66  and  O_67
REMARK   28  A    between atoms: C_68  and  O_69
REMARK   29  A    between atoms: C_71  and  O_72
REMARK   30  A    between atoms: O_72  and  S_73
REMARK   31  A    between atoms: C_77  and  N_78
REMARK   32  A    between atoms: N_78  and  S_79
REMARK   33  A    between atoms: C_83  and  O_84
REMARK   34  A    between atoms: C_85  and  O_86
REMARK   35  A    between atoms: O_86  and  S_87
REMARK   36  A    between atoms: C_91  and  O_92
REMARK   37  A    between atoms: C_94  and  O_95
REMARK   38  A    between atoms: C_96  and  N_97
REMARK   39  A    between atoms: N_97  and  S_98
REMARK                            x       y       z     vdW  Elec       q    Type
REMARK                         _______ _______ _______ _____ _____    ______ ____
ROOT
ATOM      1  C   UNL     1      -1.448  -1.487  -7.114  0.00  0.00    +0.000 C 
ATOM      2  O   UNL     1      -1.423  -3.267  -6.304  0.00  0.00    +0.000 OA
ATOM      3  C   UNL     1      -3.093  -4.424  -5.191  0.00  0.00    +0.000 C 
ATOM      4  C   UNL     1      -3.599  -3.282  -4.399  0.00  0.00    +0.000 C 
ATOM      5  C   UNL     1      -3.477  -1.836  -4.723  0.00  0.00    +0.000 C 
ATOM      6  C   UNL     1      -1.656  -0.726  -4.971  0.00  0.00    +0.000 C 
ENDROOT
BRANCH   6   7
ATOM      7  N   UNL     1      -0.428  -0.406  -3.537  0.00  0.00    +0.000 NA
ATOM      8  H   UNL     1      -1.212  -0.860  -3.049  0.00  0.00    +0.000 HD
BRANCH   7   9
ATOM      9  S   UNL     1       0.301  -1.853  -4.458  0.00  0.00    +0.000 S 
ATOM     10  O   UNL     1       1.451  -1.798  -3.721  0.00  0.00    +0.000 OA
ATOM     11  O   UNL     1      -0.951  -2.208  -4.713  0.00  0.00    +0.000 OA
ATOM     12  O   UNL     1       1.573  -1.703  -5.219  0.00  0.00    +0.000 OA
ENDBRANCH   7   9
ENDBRANCH   6   7
BRANCH   1  13
ATOM     13  O   UNL     1      -0.015  -0.306  -7.753  0.00  0.00    +0.000 OA
BRANCH  13  17
ATOM     14  C   UNL     1      -2.267  -4.102  -9.557  0.00  0.00    +0.000 C 
ATOM     15  O   UNL     1      -2.375  -2.743 -10.049  0.00  0.00    +0.000 OA
ATOM     16  C   UNL     1      -1.845  -1.379 -10.162  0.00  0.00    +0.000 C 
ATOM     17  C   UNL     1       0.253  -1.527  -9.084  0.00  0.00    +0.000 C 
ATOM     18  C   UNL     1       0.645  -3.847  -8.302  0.00  0.00    +0.000 C 
ATOM     19  C   UNL     1      -1.168  -5.051  -8.108  0.00  0.00    +0.000 C 
BRANCH  18  20
ATOM     20  O   UNL     1       1.371  -5.136  -9.185  0.00  0.00    +0.000 OA
ATOM     21  H   UNL     1       0.979  -4.457 -10.375  0.00  0.00    +0.000 HD
ENDBRANCH  18  20
BRANCH  16  22
ATOM     22  C   UNL     1      -2.057   0.590 -10.056  0.00  0.00    +0.000 C 
ATOM     23  O   UNL     1      -1.862   1.470  -9.156  0.00  0.00    +0.000 OA
BRANCH  22  24
ATOM     24  O   UNL     1      -1.057   0.965 -10.998  0.00  0.00    +0.000 OA
ATOM     25  H   UNL     1      -0.689   0.183 -11.513  0.00  0.00    +0.000 HD
ENDBRANCH  22  24
ENDBRANCH  16  22
BRANCH  14  26
ATOM     26  O   UNL     1      -2.063  -4.511 -10.765  0.00  0.00    +0.000 OA
BRANCH  26  30
ATOM     27  C   UNL     1      -0.063  -2.108  -7.505  0.00  0.00    +0.000 C 
ATOM     28  O   UNL     1      -0.764  -3.517  -7.850  0.00  0.00    +0.000 OA
ATOM     29  C   UNL     1      -0.100  -4.455  -9.656  0.00  0.00    +0.000 C 
ATOM     30  C   UNL     1      -0.852  -3.859 -10.740  0.00  0.00    +0.000 C 
ATOM     31  C   UNL     1      -0.487  -1.990 -10.753  0.00  0.00    +0.000 C 
ATOM     32  C   UNL     1      -1.193  -1.036  -8.856  0.00  0.00    +0.000 C 
BRANCH  31  33
ATOM     33  O   UNL     1       0.576  -0.804 -10.778  0.00  0.00    +0.000 OA
ATOM     34  H   UNL     1       1.300  -1.418 -10.519  0.00  0.00    +0.000 HD
ENDBRANCH  31  33
BRANCH  32  35
ATOM     35  N   UNL     1      -3.099  -1.519  -8.907  0.00  0.00    +0.000 NA
ATOM     36  H   UNL     1      -3.438  -2.176  -9.616  0.00  0.00    +0.000 HD
BRANCH  35  37
ATOM     37  S   UNL     1      -3.453  -2.768  -7.964  0.00  0.00    +0.000 S 
ATOM     38  O   UNL     1      -4.310  -2.384  -6.917  0.00  0.00    +0.000 OA
ATOM     39  O   UNL     1      -3.217  -4.569  -8.144  0.00  0.00    +0.000 OA
ATOM     40  O   UNL     1      -2.869  -1.909  -6.759  0.00  0.00    +0.000 OA
ENDBRANCH  35  37
ENDBRANCH  32  35
BRANCH  27  42
ATOM     41  C   UNL     1      -2.022   0.141  -7.238  0.00  0.00    +0.000 C 
ATOM     42  O   UNL     1      -0.602  -1.030  -6.154  0.00  0.00    +0.000 OA
ENDBRANCH  27  42
BRANCH  29  43
ATOM     43  C   UNL     1       2.158  -3.995 -10.109  0.00  0.00    +0.000 C 
BRANCH  43  44
ATOM     44  O   UNL     1       2.426  -2.308 -10.938  0.00  0.00    +0.000 OA
BRANCH  44  45
ATOM     45  S   UNL     1       1.067  -2.255 -12.449  0.00  0.00    +0.000 S 
ATOM     46  O   UNL     1       1.785  -3.318 -13.018  0.00  0.00    +0.000 OA
ATOM     47  O   UNL     1      -0.294  -2.829 -12.515  0.00  0.00    +0.000 OA
ATOM     48  O   UNL     1       0.899  -0.814 -12.707  0.00  0.00    +0.000 OA
ENDBRANCH  44  45
ENDBRANCH  43  44
ENDBRANCH  29  43
ENDBRANCH  26  30
ENDBRANCH  14  26
BRANCH  19  49
ATOM     49  O   UNL     1      -1.688  -5.593  -6.456  0.00  0.00    +0.000 OA
BRANCH  49  50
ATOM     50  S   UNL     1      -0.913  -5.785  -4.463  0.00  0.00    +0.000 S 
ATOM     51  O   UNL     1      -0.607  -7.064  -4.836  0.00  0.00    +0.000 OA
ATOM     52  O   UNL     1       0.145  -4.657  -4.010  0.00  0.00    +0.000 OA
ATOM     53  O   UNL     1      -1.799  -5.171  -3.400  0.00  0.00    +0.000 OA
ENDBRANCH  49  50
ENDBRANCH  19  49
ENDBRANCH  13  17
ENDBRANCH   1  13
BRANCH   3  54
ATOM     54  C   UNL     1      -5.120  -4.261  -6.268  0.00  0.00    +0.000 C 
BRANCH  54  55
ATOM     55  O   UNL     1      -6.004  -2.632  -6.660  0.00  0.00    +0.000 OA
BRANCH  55  56
ATOM     56  S   UNL     1      -6.552  -1.654  -5.537  0.00  0.00    +0.000 S 
ATOM     57  O   UNL     1      -7.610  -2.534  -5.328  0.00  0.00    +0.000 OA
ATOM     58  O   UNL     1      -5.745  -2.076  -4.454  0.00  0.00    +0.000 OA
ATOM     59  O   UNL     1      -6.500  -0.142  -5.822  0.00  0.00    +0.000 OA
ENDBRANCH  55  56
ENDBRANCH  54  55
ENDBRANCH   3  54
BRANCH   4  60
ATOM     60  O   UNL     1      -2.902  -3.372  -3.207  0.00  0.00    +0.000 OA
BRANCH  60  61
ATOM     61  C   UNL     1      -1.681  -3.070  -3.350  0.00  0.00    +0.000 C 
ATOM     62  O   UNL     1      -2.016  -1.529  -3.164  0.00  0.00    +0.000 OA
ATOM     63  C   UNL     1      -3.173  -0.243  -3.941  0.00  0.00    +0.000 C 
ATOM     64  C   UNL     1      -2.894  -0.686  -5.827  0.00  0.00    +0.000 C 
ATOM     65  C   UNL     1      -2.796  -2.923  -5.956  0.00  0.00    +0.000 C 
ATOM     66  C   UNL     1      -1.128  -3.837  -4.908  0.00  0.00    +0.000 C 
BRANCH  65  67
ATOM     67  O   UNL     1      -3.517  -4.085  -6.632  0.00  0.00    +0.000 OA
ATOM     68  H   UNL     1      -4.029  -3.325  -6.141  0.00  0.00    +0.000 HD
ENDBRANCH  65  67
BRANCH  66  69
ATOM     69  O   UNL     1       0.215  -4.543  -5.981  0.00  0.00    +0.000 OA
ATOM     70  H   UNL     1      -0.098  -3.795  -6.498  0.00  0.00    +0.000 HD
ENDBRANCH  66  69
BRANCH  63  71
ATOM     71  C   UNL     1      -4.631  -0.671  -3.582  0.00  0.00    +0.000 C 
ATOM     72  O   UNL     1      -5.374   0.252  -3.794  0.00  0.00    +0.000 OA
BRANCH  71  73
ATOM     73  O   UNL     1      -4.678  -2.387  -2.868  0.00  0.00    +0.000 OA
ATOM     74  H   UNL     1      -4.036  -3.526  -3.005  0.00  0.00    +0.000 HD
ENDBRANCH  71  73
ENDBRANCH  63  71
BRANCH  64  75
ATOM     75  O   UNL     1      -0.986   0.476  -6.000  0.00  0.00    +0.000 OA
BRANCH  75  76
ATOM     76  C   UNL     1       0.810  -0.468  -6.056  0.00  0.00    +0.000 C 
ATOM     77  O   UNL     1       0.680  -2.606  -6.093  0.00  0.00    +0.000 OA
ATOM     78  C   UNL     1       1.775  -3.600  -4.872  0.00  0.00    +0.000 C 
ATOM     79  C   UNL     1       3.110  -2.898  -5.230  0.00  0.00    +0.000 C 
ATOM     80  C   UNL     1       3.182  -1.011  -5.190  0.00  0.00    +0.000 C 
ATOM     81  C   UNL     1       2.163  -0.239  -6.535  0.00  0.00    +0.000 C 
BRANCH  79  82
ATOM     82  O   UNL     1       3.545  -3.119  -6.476  0.00  0.00    +0.000 OA
ATOM     83  H   UNL     1       2.596  -3.232  -6.791  0.00  0.00    +0.000 HD
ENDBRANCH  79  82
BRANCH  80  84
ATOM     84  O   UNL     1       2.689  -0.356  -3.856  0.00  0.00    +0.000 OA
ATOM     85  H   UNL     1       1.778  -0.739  -3.981  0.00  0.00    +0.000 HD
ENDBRANCH  80  84
BRANCH  81  86
ATOM     86  N   UNL     1       2.435  -0.964  -7.900  0.00  0.00    +0.000 NA
ATOM     87  H   UNL     1       3.208  -1.600  -7.776  0.00  0.00    +0.000 HD
BRANCH  86  88
ATOM     88  S   UNL     1       1.819  -2.550  -8.654  0.00  0.00    +0.000 S 
ATOM     89  O   UNL     1       1.144  -2.700  -9.978  0.00  0.00    +0.000 OA
ATOM     90  O   UNL     1       2.401  -3.892  -7.705  0.00  0.00    +0.000 OA
ATOM     91  O   UNL     1      -0.104  -2.885  -9.166  0.00  0.00    +0.000 OA
ENDBRANCH  86  88
ENDBRANCH  81  86
BRANCH  78  92
ATOM     92  C   UNL     1       1.290  -3.356  -2.940  0.00  0.00    +0.000 C 
BRANCH  92  93
ATOM     93  O   UNL     1       1.693  -4.261  -2.101  0.00  0.00    +0.000 OA
BRANCH  93  94
ATOM     94  S   UNL     1       1.089  -5.804  -2.461  0.00  0.00    +0.000 S 
ATOM     95  O   UNL     1      -0.272  -5.591  -1.939  0.00  0.00    +0.000 OA
ATOM     96  O   UNL     1       1.492  -6.151  -3.818  0.00  0.00    +0.000 OA
ATOM     97  O   UNL     1       1.866  -6.430  -1.476  0.00  0.00    +0.000 OA
ENDBRANCH  93  94
ENDBRANCH  92  93
ENDBRANCH  78  92
ENDBRANCH  75  76
ENDBRANCH  64  75
ENDBRANCH  60  61
ENDBRANCH   4  60
BRANCH   5  98
ATOM     98  O   UNL     1      -4.699  -0.862  -5.951  0.00  0.00    +0.000 OA
BRANCH  98  99
ATOM     99  S   UNL     1      -5.059  -0.720  -8.078  0.00  0.00    +0.000 S 
ATOM    100  O   UNL     1      -4.067   0.309  -8.489  0.00  0.00    +0.000 OA
ATOM    101  O   UNL     1      -5.069  -2.118  -8.746  0.00  0.00    +0.000 OA
ATOM    102  O   UNL     1      -6.273  -0.659  -8.797  0.00  0.00    +0.000 OA
ENDBRANCH  98  99
ENDBRANCH   5  98
TORSDOF 38
