REMARK  Name = 
REMARK  12 active torsions:
REMARK  status: ('A' for Active; 'I' for Inactive)
REMARK    1  A    between atoms: C_1  and  C_2
REMARK    2  A    between atoms: C_2  and  C_3
REMARK    3  A    between atoms: C_3  and  C_4
REMARK    4  A    between atoms: C_4  and  C_5
REMARK    5  A    between atoms: N_7  and  C_8
REMARK    6  A    between atoms: C_8  and  C_9
REMARK    7  A    between atoms: C_12  and  C_15
REMARK    8  A    between atoms: C_20  and  C_21
REMARK    9  A    between atoms: C_26  and  C_27
REMARK   10  A    between atoms: C_27  and  C_28
REMARK   11  A    between atoms: C_28  and  C_29
REMARK   12  A    between atoms: C_29  and  C_30
REMARK                            x       y       z     vdW  Elec       q    Type
REMARK                         _______ _______ _______ _____ _____    ______ ____
ROOT
ATOM      1  C   UNL     1       0.460   0.517  -1.642  0.00  0.00    -0.008 A 
ATOM      2  C   UNL     1       0.697   1.714  -0.951  0.00  0.00    +0.116 A 
ATOM      3  N   UNL     1       1.960   2.046  -0.571  0.00  0.00    -0.255 NA
ATOM      4  C   UNL     1       3.026   1.242  -0.834  0.00  0.00    +0.072 A 
ATOM      5  C   UNL     1       2.835   0.051  -1.551  0.00  0.00    +0.029 A 
ATOM      6  C   UNL     1       1.548  -0.311  -1.948  0.00  0.00    +0.009 A 
ENDROOT
BRANCH   4   7
ATOM      7  C   UNL     1       4.376   1.655  -0.401  0.00  0.00    +0.011 A 
ATOM      8  C   UNL     1       4.858   2.898  -0.844  0.00  0.00    +0.011 A 
ATOM      9  C   UNL     1       6.159   3.304  -0.544  0.00  0.00    +0.001 A 
ATOM     10  C   UNL     1       6.995   2.474   0.203  0.00  0.00    +0.001 A 
ATOM     11  C   UNL     1       6.526   1.245   0.671  0.00  0.00    +0.012 A 
ATOM     12  C   UNL     1       5.212   0.825   0.396  0.00  0.00    +0.032 A 
BRANCH  12  13
ATOM     13  C   UNL     1       4.738  -0.447   0.995  0.00  0.00    +0.205 A 
ATOM     14  N   UNL     1       5.547  -1.464   1.351  0.00  0.00    -0.133 NA
ATOM     15  N   UNL     1       4.729  -2.362   1.870  0.00  0.00    -0.176 N 
ATOM     16  N   UNL     1       3.481  -1.927   1.850  0.00  0.00    -0.049 NA
ATOM     17  N   UNL     1       3.454  -0.719   1.309  0.00  0.00    -0.108 NA
ATOM     18  H   UNL     1       5.027  -3.288   2.249  0.00  0.00    +0.214 HD
ENDBRANCH  12  13
ENDBRANCH   4   7
BRANCH   1  19
ATOM     19  C   UNL     1      -0.943   0.124  -2.020  0.00  0.00    +0.182 C 
BRANCH  19  22
ATOM     20  C   UNL     1      -3.074   0.178   0.809  0.00  0.00    +0.151 A 
ATOM     21  N   UNL     1      -2.625   0.723  -0.340  0.00  0.00    -0.154 NA
ATOM     22  N   UNL     1      -1.737  -0.129  -0.819  0.00  0.00    -0.245 N 
ATOM     23  C   UNL     1      -1.664  -1.176   0.031  0.00  0.00    +0.128 A 
ATOM     24  N   UNL     1      -2.496  -1.012   1.080  0.00  0.00    -0.216 NA
BRANCH  20  25
ATOM     25  C   UNL     1      -4.143   0.781   1.677  0.00  0.00    +0.078 C 
BRANCH  25  26
ATOM     26  C   UNL     1      -4.264   2.308   1.527  0.00  0.00    +0.007 C 
BRANCH  26  28
ATOM     27  C   UNL     1      -5.215   4.225   0.187  0.00  0.00    +0.004 C 
ATOM     28  C   UNL     1      -5.109   2.708   0.307  0.00  0.00    -0.003 C 
ENDBRANCH  26  28
ENDBRANCH  25  26
ENDBRANCH  20  25
BRANCH  23  29
ATOM     29  C   UNL     1      -0.716  -2.340  -0.098  0.00  0.00    +0.076 C 
BRANCH  29  30
ATOM     30  C   UNL     1      -1.367  -3.672   0.299  0.00  0.00    +0.007 C 
BRANCH  30  31
ATOM     31  C   UNL     1      -2.494  -4.073  -0.665  0.00  0.00    -0.003 C 
ATOM     32  C   UNL     1      -3.102  -5.416  -0.272  0.00  0.00    +0.004 C 
ENDBRANCH  30  31
ENDBRANCH  29  30
ENDBRANCH  23  29
ENDBRANCH  19  22
ENDBRANCH   1  19
TORSDOF 10
