REMARK  Name = 
REMARK  3 active torsions:
REMARK  status: ('A' for Active; 'I' for Inactive)
REMARK    1  A    between atoms: C_6  and  C_7
REMARK    2  A    between atoms: C_15  and  O_16
REMARK    3  A    between atoms: C_21  and  C_22
REMARK                            x       y       z     vdW  Elec       q    Type
REMARK                         _______ _______ _______ _____ _____    ______ ____
ROOT
ATOM      1  C   UNL     1       2.059   0.513   0.321  0.00  0.00    +0.006 C 
ATOM      2  C   UNL     1       3.290   1.188  -0.289  0.00  0.00    +0.012 C 
ATOM      3  C   UNL     1       4.442   0.694   0.603  0.00  0.00    +0.075 C 
ATOM      4  C   UNL     1       3.897  -0.550   1.236  0.00  0.00    +0.139 C 
ATOM      5  O   UNL     1       4.527  -1.240   2.022  0.00  0.00    -0.297 OA
ATOM      6  C   UNL     1       2.531  -0.884   0.736  0.00  0.00    +0.029 C 
ATOM      7  C   UNL     1       2.710  -1.893  -0.433  0.00  0.00    +0.019 C 
ATOM      8  C   UNL     1       1.534  -1.416   1.780  0.00  0.00    +0.015 C 
ATOM      9  C   UNL     1       0.103  -1.472   1.188  0.00  0.00    +0.005 C 
ATOM     10  C   UNL     1      -0.363  -0.140   0.496  0.00  0.00    +0.003 C 
ATOM     11  C   UNL     1       0.727   0.463  -0.451  0.00  0.00    -0.003 C 
ATOM     12  C   UNL     1       0.295   1.867  -0.877  0.00  0.00    +0.008 C 
ATOM     13  C   UNL     1      -1.021   1.833  -1.650  0.00  0.00    +0.035 C 
ATOM     14  C   UNL     1      -2.125   1.089  -0.915  0.00  0.00    -0.019 C 
ATOM     15  C   UNL     1      -3.426   1.456  -1.092  0.00  0.00    +0.159 C 
ATOM     16  C   UNL     1      -4.522   0.749  -0.404  0.00  0.00    +0.197 C 
ATOM     17  O   UNL     1      -5.704   1.170  -0.525  0.00  0.00    -0.289 OA
ATOM     18  C   UNL     1      -4.276  -0.499   0.375  0.00  0.00    +0.084 C 
ATOM     19  C   UNL     1      -2.844  -0.535   0.900  0.00  0.00    +0.019 C 
ATOM     20  C   UNL     1      -1.778  -0.237  -0.201  0.00  0.00    -0.004 C 
ATOM     21  C   UNL     1      -1.808  -1.366  -1.266  0.00  0.00    +0.016 C 
ENDROOT
BRANCH  15  22
ATOM     22  O   UNL     1      -3.808   2.505  -1.938  0.00  0.00    -0.503 OA
ATOM     23  H   UNL     1      -3.217   2.923  -2.643  0.00  0.00    +0.292 HD
ENDBRANCH  15  22
TORSDOF 1
