REMARK  Name = 
REMARK  12 active torsions:
REMARK  status: ('A' for Active; 'I' for Inactive)
REMARK    1  A    between atoms: C_1  and  O_2
REMARK    2  A    between atoms: O_2  and  C_3
REMARK    3  A    between atoms: C_6  and  C_7
REMARK    4  A    between atoms: C_7  and  C_8
REMARK    5  A    between atoms: C_8  and  C_9
REMARK    6  A    between atoms: C_8  and  N_10
REMARK    7  A    between atoms: N_10  and  C_11
REMARK    8  A    between atoms: C_11  and  C_12
REMARK    9  A    between atoms: C_12  and  O_13
REMARK   10  A    between atoms: C_12  and  C_14
REMARK   11  A    between atoms: C_16  and  N_17
REMARK   12  A    between atoms: C_20  and  O_21
REMARK                            x       y       z     vdW  Elec       q    Type
REMARK                         _______ _______ _______ _____ _____    ______ ____
ROOT
ATOM      1  C   UNL     1      -1.904  -0.319  -1.031  0.00  0.00    +0.158 C 
ENDROOT
BRANCH   1   2
ATOM      2  C   UNL     1      -3.368  -0.331  -0.631  0.00  0.00    -0.016 A 
ATOM      3  C   UNL     1      -3.728  -0.482   0.720  0.00  0.00    +0.033 A 
ATOM      4  C   UNL     1      -5.079  -0.473   1.113  0.00  0.00    +0.075 A 
ATOM      5  C   UNL     1      -6.079  -0.338   0.134  0.00  0.00    +0.138 A 
ATOM      6  C   UNL     1      -5.724  -0.179  -1.212  0.00  0.00    +0.047 A 
ATOM      7  C   UNL     1      -4.381  -0.167  -1.591  0.00  0.00    +0.010 A 
BRANCH   4   8
ATOM      8  N   UNL     1      -5.450  -0.655   2.491  0.00  0.00    -0.285 N 
ATOM      9  C   UNL     1      -4.722  -0.109   3.598  0.00  0.00    +0.330 C 
ATOM     10  O   UNL     1      -3.792   0.722   3.422  0.00  0.00    -0.279 OA
ATOM     11  H   UNL     1      -6.346  -1.146   2.710  0.00  0.00    +0.155 HD
ENDBRANCH   4   8
BRANCH   5  12
ATOM     12  O   UNL     1      -7.423  -0.349   0.504  0.00  0.00    -0.505 OA
ATOM     13  H   UNL     1      -8.164  -0.251  -0.181  0.00  0.00    +0.292 HD
ENDBRANCH   5  12
ENDBRANCH   1   2
BRANCH   1  14
ATOM     14  O   UNL     1      -1.654  -1.287  -2.022  0.00  0.00    -0.386 OA
ATOM     15  H   UNL     1      -2.021  -0.952  -2.881  0.00  0.00    +0.210 HD
ENDBRANCH   1  14
BRANCH   1  16
ATOM     16  C   UNL     1      -1.463   1.098  -1.475  0.00  0.00    +0.117 C 
BRANCH  16  17
ATOM     17  N   UNL     1      -0.077   1.163  -1.979  0.00  0.00    -0.310 NA
ATOM     18  H   UNL     1      -0.016   0.558  -2.832  0.00  0.00    +0.122 HD
BRANCH  17  19
ATOM     19  C   UNL     1       0.974   0.751  -1.022  0.00  0.00    +0.055 C 
ATOM     20  C   UNL     1       0.948   1.622   0.249  0.00  0.00    +0.024 C 
BRANCH  19  21
ATOM     21  C   UNL     1       2.350   0.864  -1.720  0.00  0.00    +0.053 C 
BRANCH  21  25
ATOM     22  C   UNL     1       5.511  -0.955   0.609  0.00  0.00    +0.120 A 
ATOM     23  C   UNL     1       5.396   0.447   0.540  0.00  0.00    +0.046 A 
ATOM     24  C   UNL     1       4.378   1.035  -0.216  0.00  0.00    +0.007 A 
ATOM     25  C   UNL     1       3.460   0.234  -0.914  0.00  0.00    -0.046 A 
ATOM     26  C   UNL     1       3.576  -1.163  -0.844  0.00  0.00    +0.007 A 
ATOM     27  C   UNL     1       4.594  -1.749  -0.088  0.00  0.00    +0.046 A 
BRANCH  22  29
ATOM     28  C   UNL     1       7.510  -0.910   2.110  0.00  0.00    +0.277 C 
ATOM     29  O   UNL     1       6.515  -1.592   1.354  0.00  0.00    -0.495 OA
ENDBRANCH  22  29
ENDBRANCH  21  25
ENDBRANCH  19  21
ENDBRANCH  17  19
ENDBRANCH  16  17
ENDBRANCH   1  16
TORSDOF 10
