REMARK  Name = 
REMARK  12 active torsions:
REMARK  status: ('A' for Active; 'I' for Inactive)
REMARK    1  A    between atoms: C_1  and  C_2
REMARK    2  A    between atoms: C_2  and  O_3
REMARK    3  A    between atoms: C_2  and  C_28
REMARK    4  A    between atoms: O_3  and  C_4
REMARK    5  A    between atoms: N_8  and  C_9
REMARK    6  A    between atoms: C_9  and  C_10
REMARK    7  A    between atoms: N_14  and  P_16
REMARK    8  A    between atoms: P_16  and  O_17
REMARK    9  A    between atoms: P_16  and  O_18
REMARK   10  A    between atoms: C_20  and  C_21
REMARK   11  A    between atoms: C_30  and  C_38
REMARK   12  A    between atoms: C_32  and  C_34
REMARK                            x       y       z     vdW  Elec       q    Type
REMARK                         _______ _______ _______ _____ _____    ______ ____
ROOT
ATOM      1  C   UNL     1      -0.435  -0.774  -0.592  0.00  0.00    +0.272 C 
ATOM      2  O   UNL     1      -1.014  -1.127  -1.834  0.00  0.00    -0.348 OA
ATOM      3  C   UNL     1      -2.403  -0.902  -1.788  0.00  0.00    +0.178 C 
ATOM      4  C   UNL     1      -3.070  -1.861  -0.797  0.00  0.00    +0.113 C 
ATOM      5  N   UNL     1      -2.438  -1.825   0.540  0.00  0.00    -0.282 NA
ATOM      6  C   UNL     1      -0.960  -1.685   0.551  0.00  0.00    +0.144 C 
ENDROOT
BRANCH   6   7
ATOM      7  C   UNL     1      -0.322  -3.066   0.570  0.00  0.00    -0.025 A 
ATOM      8  C   UNL     1      -0.283  -3.885  -0.576  0.00  0.00    +0.008 A 
ATOM      9  C   UNL     1       0.289  -5.159  -0.518  0.00  0.00    +0.038 A 
ATOM     10  C   UNL     1       0.820  -5.636   0.682  0.00  0.00    +0.123 A 
ATOM     11  F   UNL     1       1.371  -6.873   0.738  0.00  0.00    -0.205 F 
ATOM     12  C   UNL     1       0.773  -4.842   1.829  0.00  0.00    +0.038 A 
ATOM     13  C   UNL     1       0.200  -3.569   1.778  0.00  0.00    +0.008 A 
ENDBRANCH   6   7
BRANCH   1  14
ATOM     14  O   UNL     1       0.971  -0.911  -0.675  0.00  0.00    -0.342 OA
BRANCH  14  16
ATOM     15  C   UNL     1       2.303  -0.592  -2.645  0.00  0.00    +0.043 C 
ATOM     16  C   UNL     1       1.553   0.088  -1.500  0.00  0.00    +0.148 C 
BRANCH  16  17
ATOM     17  C   UNL     1       2.515   0.916  -0.677  0.00  0.00    -0.018 A 
ATOM     18  C   UNL     1       2.570   2.309  -0.839  0.00  0.00    +0.018 A 
ATOM     19  C   UNL     1       3.509   3.077  -0.129  0.00  0.00    +0.056 A 
ATOM     20  C   UNL     1       4.373   2.439   0.775  0.00  0.00    +0.024 A 
ATOM     21  C   UNL     1       4.314   1.051   0.967  0.00  0.00    +0.056 A 
ATOM     22  C   UNL     1       3.404   0.294   0.214  0.00  0.00    +0.018 A 
BRANCH  21  23
ATOM     23  C   UNL     1       5.298   0.366   1.882  0.00  0.00    +0.417 C 
ATOM     24  F   UNL     1       4.756  -0.799   2.401  0.00  0.00    -0.166 F 
ATOM     25  F   UNL     1       5.640   1.192   2.939  0.00  0.00    -0.166 F 
ATOM     26  F   UNL     1       6.439   0.052   1.168  0.00  0.00    -0.166 F 
ENDBRANCH  21  23
BRANCH  19  27
ATOM     27  C   UNL     1       3.581   4.576  -0.295  0.00  0.00    +0.417 C 
ATOM     28  F   UNL     1       2.893   4.993  -1.420  0.00  0.00    -0.166 F 
ATOM     29  F   UNL     1       3.033   5.185   0.815  0.00  0.00    -0.166 F 
ATOM     30  F   UNL     1       4.899   4.976  -0.423  0.00  0.00    -0.166 F 
ENDBRANCH  19  27
ENDBRANCH  16  17
ENDBRANCH  14  16
ENDBRANCH   1  14
BRANCH   5  31
ATOM     31  C   UNL     1      -3.155  -1.007   1.542  0.00  0.00    +0.161 C 
BRANCH  31  32
ATOM     32  C   UNL     1      -3.074   0.467   1.267  0.00  0.00    +0.142 A 
ATOM     33  N   UNL     1      -2.083   1.266   1.733  0.00  0.00    -0.176 NA
ATOM     34  C   UNL     1      -2.412   2.454   1.185  0.00  0.00    +0.374 A 
ATOM     35  O   UNL     1      -1.727   3.501   1.335  0.00  0.00    -0.242 OA
ATOM     36  N   UNL     1      -3.534   2.387   0.451  0.00  0.00    -0.135 N 
ATOM     37  N   UNL     1      -3.950   1.137   0.491  0.00  0.00    -0.270 N 
ATOM     38  H   UNL     1      -4.777   0.754  -0.018  0.00  0.00    +0.189 HD
BRANCH  36  39
ATOM     39  P   UNL     1      -4.228   3.643  -0.559  0.00  0.00    +0.455 P 
ATOM     40  O   UNL     1      -3.449   3.732  -1.851  0.00  0.00    -0.233 OA
BRANCH  39  41
ATOM     41  O   UNL     1      -4.150   5.130   0.243  0.00  0.00    -0.307 OA
ATOM     42  H   UNL     1      -4.620   4.978   1.103  0.00  0.00    +0.222 HD
ENDBRANCH  39  41
BRANCH  39  43
ATOM     43  O   UNL     1      -5.842   3.270  -0.906  0.00  0.00    -0.307 OA
ATOM     44  H   UNL     1      -6.273   3.169  -0.021  0.00  0.00    +0.222 HD
ENDBRANCH  39  43
ENDBRANCH  36  39
ENDBRANCH  31  32
ENDBRANCH   5  31
TORSDOF 11
