REMARK  Name = 
REMARK  19 active torsions:
REMARK  status: ('A' for Active; 'I' for Inactive)
REMARK    1  A    between atoms: C_1  and  C_2
REMARK    2  A    between atoms: C_2  and  C_3
REMARK    3  A    between atoms: C_2  and  C_4
REMARK    4  A    between atoms: C_4  and  N_5
REMARK    5  A    between atoms: N_5  and  C_6
REMARK    6  A    between atoms: N_5  and  S_30
REMARK    7  A    between atoms: C_6  and  C_7
REMARK    8  A    between atoms: C_7  and  O_8
REMARK    9  A    between atoms: C_7  and  C_13
REMARK   10  A    between atoms: O_8  and  P_9
REMARK   11  A    between atoms: P_9  and  O_10
REMARK   12  A    between atoms: P_9  and  O_11
REMARK   13  A    between atoms: C_13  and  C_14
REMARK   14  A    between atoms: C_13  and  N_21
REMARK   15  A    between atoms: C_14  and  C_15
REMARK   16  A    between atoms: C_22  and  O_24
REMARK   17  A    between atoms: O_24  and  C_25
REMARK   18  A    between atoms: S_30  and  C_33
REMARK   19  A    between atoms: C_36  and  N_37
REMARK                            x       y       z     vdW  Elec       q    Type
REMARK                         _______ _______ _______ _____ _____    ______ ____
ROOT
ATOM      1  C   UNL     1       0.092   1.431  -0.385  0.00  0.00    +0.166 C 
ENDROOT
BRANCH   1   2
ATOM      2  C   UNL     1       1.102   0.275  -0.258  0.00  0.00    +0.143 C 
BRANCH   2   3
ATOM      3  N   UNL     1       2.210   0.466  -1.221  0.00  0.00    -0.174 NA
BRANCH   3   4
ATOM      4  S   UNL     1       3.578   1.236  -0.442  0.00  0.00    +0.061 S 
ATOM      5  O   UNL     1       3.146   2.528   0.193  0.00  0.00    -0.153 OA
ATOM      6  O   UNL     1       4.627   1.556  -1.472  0.00  0.00    -0.153 OA
BRANCH   4   7
ATOM      7  C   UNL     1       4.281   0.188   0.794  0.00  0.00    +0.106 A 
ATOM      8  C   UNL     1       3.903   0.325   2.138  0.00  0.00    +0.030 A 
ATOM      9  C   UNL     1       4.451  -0.513   3.113  0.00  0.00    +0.024 A 
ATOM     10  C   UNL     1       5.385  -1.496   2.755  0.00  0.00    +0.025 A 
ATOM     11  C   UNL     1       5.765  -1.632   1.412  0.00  0.00    +0.024 A 
ATOM     12  C   UNL     1       5.218  -0.792   0.437  0.00  0.00    +0.030 A 
BRANCH  10  13
ATOM     13  N   UNL     1       5.947  -2.351   3.753  0.00  0.00    -0.358 N 
ATOM     14  H   UNL     1       6.636  -3.093   3.495  0.00  0.00    +0.142 HD
ATOM     15  H   UNL     1       5.678  -2.250   4.757  0.00  0.00    +0.142 HD
ENDBRANCH  10  13
ENDBRANCH   4   7
ENDBRANCH   3   4
BRANCH   3  16
ATOM     16  C   UNL     1       2.632  -0.808  -1.840  0.00  0.00    +0.112 C 
BRANCH  16  18
ATOM     17  C   UNL     1       1.844  -0.175  -4.167  0.00  0.00    +0.008 C 
ATOM     18  C   UNL     1       1.708  -1.183  -3.018  0.00  0.00    -0.001 C 
ATOM     19  C   UNL     1       2.026  -2.597  -3.515  0.00  0.00    +0.008 C 
ENDBRANCH  16  18
ENDBRANCH   3  16
ENDBRANCH   2   3
ENDBRANCH   1   2
BRANCH   1  20
ATOM     20  O   UNL     1      -0.502   1.349  -1.669  0.00  0.00    -0.280 OA
BRANCH  20  21
ATOM     21  P   UNL     1      -0.455   2.869  -2.447  0.00  0.00    +0.473 P 
ATOM     22  O   UNL     1      -1.053   2.735  -3.829  0.00  0.00    -0.228 OA
BRANCH  21  23
ATOM     23  O   UNL     1      -1.346   4.003  -1.559  0.00  0.00    -0.303 OA
ATOM     24  H   UNL     1      -2.275   3.659  -1.571  0.00  0.00    +0.222 HD
ENDBRANCH  21  23
BRANCH  21  25
ATOM     25  O   UNL     1       1.150   3.393  -2.586  0.00  0.00    -0.303 OA
ATOM     26  H   UNL     1       1.088   4.292  -2.994  0.00  0.00    +0.222 HD
ENDBRANCH  21  25
ENDBRANCH  20  21
ENDBRANCH   1  20
BRANCH   1  27
ATOM     27  C   UNL     1      -1.026   1.375   0.691  0.00  0.00    +0.111 C 
BRANCH  27  28
ATOM     28  N   UNL     1      -1.706   0.075   0.672  0.00  0.00    -0.275 N 
ATOM     29  C   UNL     1      -2.897  -0.172  -0.084  0.00  0.00    +0.401 C 
ATOM     30  O   UNL     1      -3.461   0.765  -0.714  0.00  0.00    -0.226 OA
ATOM     31  H   UNL     1      -1.264  -0.736   1.160  0.00  0.00    +0.152 HD
BRANCH  29  32
ATOM     32  O   UNL     1      -3.427  -1.466  -0.111  0.00  0.00    -0.445 OA
BRANCH  32  33
ATOM     33  C   UNL     1      -4.637  -1.803  -0.790  0.00  0.00    +0.206 C 
ATOM     34  C   UNL     1      -4.478  -1.770  -2.282  0.00  0.00    +0.075 C 
ATOM     35  C   UNL     1      -5.408  -2.876  -2.745  0.00  0.00    +0.163 C 
ATOM     36  O   UNL     1      -5.672  -3.754  -1.673  0.00  0.00    -0.376 OA
ATOM     37  C   UNL     1      -5.009  -3.248  -0.537  0.00  0.00    +0.204 C 
ENDBRANCH  32  33
ENDBRANCH  29  32
ENDBRANCH  27  28
BRANCH  27  38
ATOM     38  C   UNL     1      -0.499   1.683   2.109  0.00  0.00    +0.060 C 
BRANCH  38  39
ATOM     39  C   UNL     1      -1.639   1.873   3.078  0.00  0.00    -0.046 A 
ATOM     40  C   UNL     1      -2.279   3.119   3.179  0.00  0.00    +0.004 A 
ATOM     41  C   UNL     1      -3.361   3.286   4.048  0.00  0.00    +0.000 A 
ATOM     42  C   UNL     1      -3.818   2.210   4.814  0.00  0.00    +0.000 A 
ATOM     43  C   UNL     1      -3.193   0.964   4.712  0.00  0.00    +0.000 A 
ATOM     44  C   UNL     1      -2.109   0.793   3.844  0.00  0.00    +0.004 A 
ENDBRANCH  38  39
ENDBRANCH  27  38
ENDBRANCH   1  27
TORSDOF 17
