REMARK  Name = 
REMARK  4 active torsions:
REMARK  status: ('A' for Active; 'I' for Inactive)
REMARK    1  A    between atoms: O_1  and  C_2
REMARK    2  A    between atoms: C_2  and  P_4
REMARK    3  A    between atoms: P_4  and  O_5
REMARK    4  A    between atoms: P_4  and  O_6
REMARK                            x       y       z     vdW  Elec       q    Type
REMARK                         _______ _______ _______ _____ _____    ______ ____
ROOT
ATOM      1  P   UNL     1      -0.687   0.075  -0.115  0.00  0.00    +0.434 P 
ATOM      2  O   UNL     1      -1.017  -0.181  -1.569  0.00  0.00    -0.247 OA
ENDROOT
BRANCH   1   3
ATOM      3  C   UNL     1       0.954  -0.535   0.240  0.00  0.00    +0.418 C 
ATOM      4  O   UNL     1       1.216  -1.005   1.378  0.00  0.00    -0.237 OA
BRANCH   3   5
ATOM      5  O   UNL     1       1.950  -0.446  -0.726  0.00  0.00    -0.472 OA
ATOM      6  H   UNL     1       2.890  -0.773  -0.535  0.00  0.00    +0.296 HD
ENDBRANCH   3   5
ENDBRANCH   1   3
BRANCH   1   7
ATOM      7  O   UNL     1      -0.751   1.738   0.195  0.00  0.00    -0.316 OA
ATOM      8  H   UNL     1      -0.071   2.135  -0.406  0.00  0.00    +0.220 HD
ENDBRANCH   1   7
BRANCH   1   9
ATOM      9  O   UNL     1      -1.809  -0.724   0.866  0.00  0.00    -0.316 OA
ATOM     10  H   UNL     1      -2.675  -0.284   0.671  0.00  0.00    +0.220 HD
ENDBRANCH   1   9
TORSDOF 4
