REMARK  Name = 
REMARK  4 active torsions:
REMARK  status: ('A' for Active; 'I' for Inactive)
REMARK    1  A    between atoms: C_1  and  C_2
REMARK    2  A    between atoms: C_4  and  P_5
REMARK    3  A    between atoms: P_5  and  O_6
REMARK    4  A    between atoms: P_5  and  O_7
REMARK                            x       y       z     vdW  Elec       q    Type
REMARK                         _______ _______ _______ _____ _____    ______ ____
ROOT
ATOM      1  P   UNL     1      -1.347   0.072   0.142  0.00  0.00    +0.359 P 
ATOM      2  O   UNL     1      -1.595  -1.374  -0.225  0.00  0.00    -0.256 OA
ENDROOT
BRANCH   1   6
ATOM      3  C   UNL     1       1.606  -1.119   0.115  0.00  0.00    +0.041 C 
ATOM      4  C   UNL     1       1.374   0.095  -0.784  0.00  0.00    +0.157 C 
ATOM      5  O   UNL     1       1.053   1.247  -0.037  0.00  0.00    -0.356 OA
ATOM      6  C   UNL     1       0.030   0.733  -0.861  0.00  0.00    +0.260 C 
ENDBRANCH   1   6
BRANCH   1   7
ATOM      7  O   UNL     1      -2.742   0.971  -0.186  0.00  0.00    -0.322 OA
ATOM      8  H   UNL     1      -2.528   1.888   0.119  0.00  0.00    +0.220 HD
ENDBRANCH   1   7
BRANCH   1   9
ATOM      9  O   UNL     1      -0.990   0.187   1.793  0.00  0.00    -0.322 OA
ATOM     10  H   UNL     1      -1.807  -0.135   2.251  0.00  0.00    +0.220 HD
ENDBRANCH   1   9
TORSDOF 3
