REMARK  Name = 
REMARK  19 active torsions:
REMARK  status: ('A' for Active; 'I' for Inactive)
REMARK    1  A    between atoms: C_1  and  C_2
REMARK    2  A    between atoms: C_2  and  C_3
REMARK    3  A    between atoms: C_3  and  O_5
REMARK    4  A    between atoms: O_5  and  C_6
REMARK    5  A    between atoms: C_6  and  O_7
REMARK    6  A    between atoms: C_6  and  C_37
REMARK    7  A    between atoms: O_7  and  P_8
REMARK    8  A    between atoms: P_8  and  C_10
REMARK    9  A    between atoms: P_8  and  C_20
REMARK   10  A    between atoms: C_10  and  C_11
REMARK   11  A    between atoms: C_11  and  C_12
REMARK   12  A    between atoms: C_12  and  C_13
REMARK   13  A    between atoms: C_13  and  C_14
REMARK   14  A    between atoms: C_20  and  C_21
REMARK   15  A    between atoms: C_25  and  C_31
REMARK   16  A    between atoms: C_27  and  C_28
REMARK   17  A    between atoms: C_28  and  O_29
REMARK   18  A    between atoms: C_37  and  C_38
REMARK   19  A    between atoms: C_37  and  C_39
REMARK                            x       y       z     vdW  Elec       q    Type
REMARK                         _______ _______ _______ _____ _____    ______ ____
ROOT
ATOM      1  P   UNL     1      -1.397  -0.132  -0.931  0.00  0.00    +0.216 P 
ATOM      2  O   UNL     1      -2.162   0.087  -2.219  0.00  0.00    -0.290 OA
ENDROOT
BRANCH   1   3
ATOM      3  O   UNL     1      -0.984  -1.783  -0.776  0.00  0.00    -0.286 OA
BRANCH   3   4
ATOM      4  C   UNL     1      -2.138  -2.600  -0.849  0.00  0.00    +0.319 C 
BRANCH   4   5
ATOM      5  C   UNL     1      -1.807  -3.827  -1.729  0.00  0.00    +0.052 C 
ATOM      6  C   UNL     1      -0.710  -4.702  -1.104  0.00  0.00    +0.013 C 
ATOM      7  C   UNL     1      -3.053  -4.670  -2.031  0.00  0.00    +0.013 C 
ENDBRANCH   4   5
BRANCH   4   8
ATOM      8  O   UNL     1      -2.479  -3.020   0.475  0.00  0.00    -0.434 OA
BRANCH   8   9
ATOM      9  C   UNL     1      -3.788  -3.244   0.916  0.00  0.00    +0.309 C 
ATOM     10  O   UNL     1      -4.778  -2.953   0.190  0.00  0.00    -0.251 OA
BRANCH   9  12
ATOM     11  C   UNL     1      -4.203  -5.386   2.089  0.00  0.00    +0.015 C 
ATOM     12  C   UNL     1      -4.010  -3.883   2.249  0.00  0.00    +0.117 C 
ENDBRANCH   9  12
ENDBRANCH   8   9
ENDBRANCH   4   8
ENDBRANCH   3   4
ENDBRANCH   1   3
BRANCH   1  13
ATOM     13  C   UNL     1      -2.380   0.417   0.516  0.00  0.00    +0.098 C 
BRANCH  13  14
ATOM     14  C   UNL     1      -3.504   1.393   0.145  0.00  0.00    +0.010 C 
BRANCH  14  15
ATOM     15  C   UNL     1      -2.979   2.799  -0.192  0.00  0.00    +0.005 C 
BRANCH  15  16
ATOM     16  C   UNL     1      -4.107   3.760  -0.600  0.00  0.00    +0.035 C 
BRANCH  16  17
ATOM     17  C   UNL     1      -5.048   4.053   0.541  0.00  0.00    -0.047 A 
ATOM     18  C   UNL     1      -4.689   4.982   1.531  0.00  0.00    +0.003 A 
ATOM     19  C   UNL     1      -5.553   5.241   2.600  0.00  0.00    +0.000 A 
ATOM     20  C   UNL     1      -6.775   4.569   2.693  0.00  0.00    +0.000 A 
ATOM     21  C   UNL     1      -7.136   3.637   1.716  0.00  0.00    +0.000 A 
ATOM     22  C   UNL     1      -6.277   3.378   0.643  0.00  0.00    +0.003 A 
ENDBRANCH  16  17
ENDBRANCH  15  16
ENDBRANCH  14  15
ENDBRANCH  13  14
ENDBRANCH   1  13
BRANCH   1  23
ATOM     23  C   UNL     1       0.155   0.823  -1.010  0.00  0.00    +0.193 C 
BRANCH  23  24
ATOM     24  C   UNL     1       1.134   0.183  -1.962  0.00  0.00    +0.226 C 
ATOM     25  O   UNL     1       0.731  -0.172  -3.104  0.00  0.00    -0.275 OA
ATOM     26  N   UNL     1       2.523   0.004  -1.618  0.00  0.00    -0.287 N 
ATOM     27  C   UNL     1       3.156   0.553  -0.427  0.00  0.00    +0.112 C 
ATOM     28  C   UNL     1       4.625   0.112  -0.495  0.00  0.00    +0.012 C 
ATOM     29  C   UNL     1       4.855  -0.237  -1.973  0.00  0.00    +0.039 C 
ATOM     30  C   UNL     1       3.482  -0.626  -2.517  0.00  0.00    +0.185 C 
BRANCH  28  31
ATOM     31  C   UNL     1       5.622   1.177   0.042  0.00  0.00    -0.006 C 
ATOM     32  C   UNL     1       7.093   0.720  -0.165  0.00  0.00    +0.004 C 
ATOM     33  C   UNL     1       8.096   1.389   0.799  0.00  0.00    +0.000 C 
ATOM     34  C   UNL     1       7.601   2.755   1.280  0.00  0.00    +0.000 C 
ATOM     35  C   UNL     1       6.271   2.633   2.045  0.00  0.00    +0.000 C 
ATOM     36  C   UNL     1       5.369   1.488   1.535  0.00  0.00    +0.004 C 
ENDBRANCH  28  31
BRANCH  30  37
ATOM     37  C   UNL     1       3.300  -2.119  -2.515  0.00  0.00    +0.325 C 
ATOM     38  O   UNL     1       3.738  -2.800  -3.480  0.00  0.00    -0.249 OA
BRANCH  37  39
ATOM     39  O   UNL     1       2.700  -2.757  -1.430  0.00  0.00    -0.479 OA
ATOM     40  H   UNL     1       2.610  -3.765  -1.406  0.00  0.00    +0.295 HD
ENDBRANCH  37  39
ENDBRANCH  30  37
ENDBRANCH  23  24
ENDBRANCH   1  23
TORSDOF 16
