REMARK  Name = 
REMARK  12 active torsions:
REMARK  status: ('A' for Active; 'I' for Inactive)
REMARK    1  A    between atoms: C_1  and  C_2
REMARK    2  A    between atoms: C_2  and  C_3
REMARK    3  A    between atoms: C_2  and  C_4
REMARK    4  A    between atoms: C_8  and  C_9
REMARK    5  A    between atoms: C_9  and  C_10
REMARK    6  A    between atoms: C_9  and  C_11
REMARK    7  A    between atoms: C_12  and  O_13
REMARK    8  A    between atoms: O_13  and  C_14
REMARK    9  A    between atoms: C_14  and  O_15
REMARK   10  A    between atoms: O_15  and  P_16
REMARK   11  A    between atoms: P_16  and  O_17
REMARK   12  A    between atoms: P_16  and  O_18
REMARK                            x       y       z     vdW  Elec       q    Type
REMARK                         _______ _______ _______ _____ _____    ______ ____
ROOT
ATOM      1  C   UNL     1      -1.093  -0.993   0.099  0.00  0.00    -0.003 A 
ATOM      2  C   UNL     1      -2.377  -1.005   0.675  0.00  0.00    +0.007 A 
ATOM      3  C   UNL     1      -3.023   0.184   0.997  0.00  0.00    +0.001 A 
ATOM      4  C   UNL     1      -2.412   1.407   0.736  0.00  0.00    +0.007 A 
ATOM      5  C   UNL     1      -1.127   1.463   0.165  0.00  0.00    -0.003 A 
ATOM      6  C   UNL     1      -0.449   0.250  -0.120  0.00  0.00    +0.130 A 
ENDROOT
BRANCH   1   8
ATOM      7  C   UNL     1      -0.131  -3.148   0.979  0.00  0.00    +0.012 C 
ATOM      8  C   UNL     1      -0.420  -2.307  -0.270  0.00  0.00    +0.016 C 
ATOM      9  C   UNL     1      -1.257  -3.098  -1.285  0.00  0.00    +0.012 C 
ENDBRANCH   1   8
BRANCH   5  10
ATOM     10  C   UNL     1      -0.515   2.816  -0.175  0.00  0.00    +0.016 C 
ATOM     11  C   UNL     1      -0.311   3.667   1.085  0.00  0.00    +0.012 C 
ATOM     12  C   UNL     1      -1.367   3.563  -1.209  0.00  0.00    +0.012 C 
ENDBRANCH   5  10
BRANCH   6  13
ATOM     13  O   UNL     1       0.854   0.276  -0.633  0.00  0.00    -0.465 OA
BRANCH  13  14
ATOM     14  C   UNL     1       1.989   0.525   0.197  0.00  0.00    +0.406 C 
BRANCH  14  15
ATOM     15  O   UNL     1       2.339  -0.642   0.906  0.00  0.00    -0.249 OA
BRANCH  15  16
ATOM     16  P   UNL     1       3.425  -1.569  -0.030  0.00  0.00    +0.475 P 
ATOM     17  O   UNL     1       3.373  -3.004   0.443  0.00  0.00    -0.227 OA
BRANCH  16  18
ATOM     18  O   UNL     1       4.997  -0.979   0.181  0.00  0.00    -0.303 OA
ATOM     19  H   UNL     1       5.035  -0.152  -0.362  0.00  0.00    +0.222 HD
ENDBRANCH  16  18
BRANCH  16  20
ATOM     20  O   UNL     1       3.012  -1.513  -1.672  0.00  0.00    -0.303 OA
ATOM     21  H   UNL     1       3.726  -2.025  -2.130  0.00  0.00    +0.222 HD
ENDBRANCH  16  20
ENDBRANCH  15  16
ENDBRANCH  14  15
ENDBRANCH  13  14
ENDBRANCH   6  13
TORSDOF 8
