REMARK  Name = 
REMARK  7 active torsions:
REMARK  status: ('A' for Active; 'I' for Inactive)
REMARK    1  A    between atoms: O_1  and  P_2
REMARK    2  A    between atoms: P_2  and  O_3
REMARK    3  A    between atoms: P_2  and  O_5
REMARK    4  A    between atoms: O_5  and  C_6
REMARK    5  A    between atoms: C_6  and  N_7
REMARK    6  A    between atoms: C_11  and  C_14
REMARK    7  A    between atoms: C_11  and  C_20
REMARK                            x       y       z     vdW  Elec       q    Type
REMARK                         _______ _______ _______ _____ _____    ______ ____
ROOT
ATOM      1  N   UNL     1       1.433   1.003  -0.494  0.00  0.00    -0.199 N 
ATOM      2  C   UNL     1       0.728   0.678  -1.679  0.00  0.00    +0.312 C 
ATOM      3  O   UNL     1       1.226   0.764  -2.833  0.00  0.00    -0.252 OA
ATOM      4  N   UNL     1      -0.590   0.209  -1.433  0.00  0.00    -0.277 N 
ATOM      5  C   UNL     1      -0.800   0.149   0.017  0.00  0.00    +0.164 C 
ATOM      6  C   UNL     1       0.525   0.653   0.546  0.00  0.00    +0.257 C 
ATOM      7  O   UNL     1       0.817   0.745   1.769  0.00  0.00    -0.272 OA
ATOM      8  H   UNL     1      -1.265  -0.107  -2.165  0.00  0.00    +0.152 HD
ENDROOT
BRANCH   5   9
ATOM      9  C   UNL     1      -1.900   1.109   0.473  0.00  0.00    -0.011 A 
ATOM     10  C   UNL     1      -2.423   2.104  -0.380  0.00  0.00    +0.006 A 
ATOM     11  C   UNL     1      -3.406   2.987   0.077  0.00  0.00    +0.000 A 
ATOM     12  C   UNL     1      -3.872   2.901   1.390  0.00  0.00    +0.000 A 
ATOM     13  C   UNL     1      -3.350   1.937   2.253  0.00  0.00    +0.000 A 
ATOM     14  C   UNL     1      -2.366   1.052   1.804  0.00  0.00    +0.006 A 
ENDBRANCH   5   9
BRANCH   5  15
ATOM     15  C   UNL     1      -1.099  -1.304   0.395  0.00  0.00    -0.011 A 
ATOM     16  C   UNL     1      -2.394  -1.824   0.184  0.00  0.00    +0.006 A 
ATOM     17  C   UNL     1      -2.684  -3.160   0.473  0.00  0.00    +0.000 A 
ATOM     18  C   UNL     1      -1.684  -4.007   0.949  0.00  0.00    +0.000 A 
ATOM     19  C   UNL     1      -0.387  -3.523   1.127  0.00  0.00    +0.000 A 
ATOM     20  C   UNL     1      -0.090  -2.187   0.841  0.00  0.00    +0.006 A 
ENDBRANCH   5  15
BRANCH   1  21
ATOM     21  C   UNL     1       2.883   1.083  -0.361  0.00  0.00    +0.292 C 
BRANCH  21  22
ATOM     22  O   UNL     1       3.410  -0.221  -0.311  0.00  0.00    -0.267 OA
BRANCH  22  23
ATOM     23  P   UNL     1       5.091  -0.117  -0.042  0.00  0.00    +0.474 P 
ATOM     24  O   UNL     1       5.359   0.452   1.335  0.00  0.00    -0.227 OA
BRANCH  23  25
ATOM     25  O   UNL     1       5.824   0.854  -1.222  0.00  0.00    -0.303 OA
ATOM     26  H   UNL     1       5.769   1.778  -0.869  0.00  0.00    +0.222 HD
ENDBRANCH  23  25
BRANCH  23  27
ATOM     27  O   UNL     1       5.748  -1.674  -0.131  0.00  0.00    -0.303 OA
ATOM     28  H   UNL     1       6.725  -1.542  -0.038  0.00  0.00    +0.222 HD
ENDBRANCH  23  27
ENDBRANCH  22  23
ENDBRANCH  21  22
ENDBRANCH   1  21
TORSDOF 7
