REMARK  Name = 
REMARK  3 active torsions:
REMARK  status: ('A' for Active; 'I' for Inactive)
REMARK    1  A    between atoms: C_1  and  N_2
REMARK    2  A    between atoms: N_2  and  C_3
REMARK    3  A    between atoms: C_14  and  C_16
REMARK                            x       y       z     vdW  Elec       q    Type
REMARK                         _______ _______ _______ _____ _____    ______ ____
ROOT
ATOM      1  C   UNL     1      -2.603  -0.474   0.357  0.00  0.00    +0.058 C 
ATOM      2  C   UNL     1      -2.951   0.937  -0.203  0.00  0.00    +0.025 C 
ATOM      3  C   UNL     1      -1.975   2.013   0.313  0.00  0.00    +0.055 C 
ATOM      4  C   UNL     1      -0.559   1.539   0.199  0.00  0.00    +0.020 A 
ATOM      5  C   UNL     1      -0.211   0.204   0.088  0.00  0.00    -0.018 A 
ATOM      6  C   UNL     1      -1.193  -0.912  -0.100  0.00  0.00    +0.056 C 
ATOM      7  C   UNL     1       1.166   0.178   0.057  0.00  0.00    +0.004 A 
ATOM      8  C   UNL     1       1.586   1.479   0.184  0.00  0.00    +0.047 A 
ATOM      9  N   UNL     1       0.540   2.323   0.281  0.00  0.00    -0.358 N 
ATOM     10  C   UNL     1       2.938   1.808   0.198  0.00  0.00    +0.027 A 
ATOM     11  C   UNL     1       3.873   0.765   0.068  0.00  0.00    +0.015 A 
ATOM     12  C   UNL     1       3.448  -0.584  -0.081  0.00  0.00    +0.037 A 
ATOM     13  C   UNL     1       2.063  -0.878  -0.079  0.00  0.00    +0.023 A 
ATOM     14  H   UNL     1       0.570   3.361   0.394  0.00  0.00    +0.166 HD
ENDROOT
BRANCH  12  15
ATOM     15  C   UNL     1       4.431  -1.686  -0.216  0.00  0.00    +0.242 C 
ATOM     16  N   UNL     1       5.762  -1.448  -0.684  0.00  0.00    -0.325 N 
ATOM     17  O   UNL     1       4.090  -2.864   0.073  0.00  0.00    -0.270 OA
ATOM     18  H   UNL     1       6.450  -2.233  -0.712  0.00  0.00    +0.145 HD
ATOM     19  H   UNL     1       6.048  -0.530  -1.086  0.00  0.00    +0.145 HD
ENDBRANCH  12  15
BRANCH   1  21
ATOM     20  C   UNL     1      -4.776  -1.505   0.765  0.00  0.00    +0.101 C 
ATOM     21  N   UNL     1      -3.578  -1.492  -0.077  0.00  0.00    -0.316 NA
ATOM     22  H   UNL     1      -3.867  -1.312  -1.068  0.00  0.00    +0.122 HD
ENDBRANCH   1  21
TORSDOF 2
