REMARK  Name = 
REMARK  18 active torsions:
REMARK  status: ('A' for Active; 'I' for Inactive)
REMARK    1  A    between atoms: C_4  and  O_5
REMARK    2  A    between atoms: C_6  and  C_7
REMARK    3  A    between atoms: C_12  and  C_13
REMARK    4  A    between atoms: C_13  and  C_14
REMARK    5  A    between atoms: C_14  and  C_15
REMARK    6  A    between atoms: C_15  and  C_16
REMARK    7  A    between atoms: C_16  and  C_17
REMARK    8  A    between atoms: C_17  and  C_18
REMARK    9  A    between atoms: C_18  and  C_19
REMARK   10  A    between atoms: C_19  and  C_20
REMARK   11  A    between atoms: C_20  and  C_21
REMARK   12  A    between atoms: C_21  and  S_22
REMARK   13  A    between atoms: S_22  and  C_24
REMARK   14  A    between atoms: C_24  and  C_25
REMARK   15  A    between atoms: C_25  and  C_26
REMARK   16  A    between atoms: C_26  and  C_27
REMARK   17  A    between atoms: C_27  and  C_30
REMARK   18  A    between atoms: C_37  and  O_38
REMARK                            x       y       z     vdW  Elec       q    Type
REMARK                         _______ _______ _______ _____ _____    ______ ____
ROOT
ATOM      1  C   UNL     1      -5.064  -0.433  -0.753  0.00  0.00    +0.001 C 
ATOM      2  C   UNL     1      -5.666   0.259  -1.982  0.00  0.00    +0.007 C 
ATOM      3  C   UNL     1      -7.166   0.416  -1.653  0.00  0.00    +0.032 C 
ATOM      4  C   UNL     1      -7.316   0.040  -0.160  0.00  0.00    +0.121 C 
ATOM      5  C   UNL     1      -5.877   0.124   0.426  0.00  0.00    -0.003 C 
ATOM      6  C   UNL     1      -5.498   1.603   0.767  0.00  0.00    +0.014 C 
ATOM      7  C   UNL     1      -5.671  -0.790   1.665  0.00  0.00    +0.010 C 
ATOM      8  C   UNL     1      -4.231  -1.350   1.814  0.00  0.00    +0.009 C 
ATOM      9  C   UNL     1      -3.131  -0.634   0.982  0.00  0.00    +0.023 C 
ATOM     10  C   UNL     1      -3.512  -0.529  -0.537  0.00  0.00    +0.004 C 
ATOM     11  C   UNL     1      -2.627   0.494  -1.344  0.00  0.00    -0.003 C 
ATOM     12  C   UNL     1      -1.306   0.828  -0.618  0.00  0.00    +0.039 C 
ATOM     13  C   UNL     1      -1.622   1.361   0.750  0.00  0.00    -0.040 A 
ATOM     14  C   UNL     1      -0.985   2.513   1.238  0.00  0.00    +0.049 A 
ATOM     15  C   UNL     1      -1.279   2.989   2.516  0.00  0.00    +0.117 A 
ATOM     16  C   UNL     1      -2.204   2.302   3.311  0.00  0.00    +0.046 A 
ATOM     17  C   UNL     1      -2.829   1.144   2.842  0.00  0.00    +0.008 A 
ATOM     18  C   UNL     1      -2.563   0.670   1.544  0.00  0.00    -0.041 A 
ENDROOT
BRANCH   4  19
ATOM     19  O   UNL     1      -8.231   0.869   0.517  0.00  0.00    -0.391 OA
ATOM     20  H   UNL     1      -9.081   0.812   0.027  0.00  0.00    +0.210 HD
ENDBRANCH   4  19
BRANCH  15  21
ATOM     21  O   UNL     1      -0.635   4.134   2.991  0.00  0.00    -0.507 OA
ATOM     22  H   UNL     1      -0.823   4.491   3.923  0.00  0.00    +0.292 HD
ENDBRANCH  15  21
BRANCH  11  23
ATOM     23  C   UNL     1      -2.358   0.032  -2.805  0.00  0.00    +0.004 C 
BRANCH  23  24
ATOM     24  C   UNL     1      -1.440  -1.211  -2.961  0.00  0.00    +0.000 C 
BRANCH  24  25
ATOM     25  C   UNL     1      -0.051  -0.830  -3.490  0.00  0.00    +0.000 C 
BRANCH  25  26
ATOM     26  C   UNL     1       0.914  -2.037  -3.526  0.00  0.00    +0.000 C 
BRANCH  26  27
ATOM     27  C   UNL     1       2.089  -1.901  -2.536  0.00  0.00    +0.000 C 
BRANCH  27  28
ATOM     28  C   UNL     1       1.794  -2.564  -1.175  0.00  0.00    +0.000 C 
BRANCH  28  29
ATOM     29  C   UNL     1       2.590  -2.048   0.053  0.00  0.00    +0.001 C 
BRANCH  29  30
ATOM     30  C   UNL     1       3.869  -1.211  -0.160  0.00  0.00    +0.013 C 
BRANCH  30  31
ATOM     31  C   UNL     1       5.041  -1.994  -0.773  0.00  0.00    +0.104 C 
BRANCH  31  32
ATOM     32  S   UNL     1       6.593  -1.046  -0.704  0.00  0.00    +0.022 S 
ATOM     33  O   UNL     1       6.146   0.403  -0.862  0.00  0.00    -0.257 OA
BRANCH  32  34
ATOM     34  C   UNL     1       7.124  -1.162   1.030  0.00  0.00    +0.104 C 
BRANCH  34  35
ATOM     35  C   UNL     1       8.528  -0.588   1.265  0.00  0.00    +0.019 C 
BRANCH  35  36
ATOM     36  C   UNL     1       8.643   0.951   1.188  0.00  0.00    +0.086 C 
BRANCH  36  37
ATOM     37  C   UNL     1       7.915   1.702   2.324  0.00  0.00    +0.342 C 
ATOM     38  F   UNL     1       8.193   1.105   3.545  0.00  0.00    -0.196 F 
ATOM     39  F   UNL     1       6.554   1.651   2.107  0.00  0.00    -0.196 F 
BRANCH  37  40
ATOM     40  C   UNL     1       8.329   3.176   2.394  0.00  0.00    +0.454 C 
ATOM     41  F   UNL     1       8.100   3.804   1.179  0.00  0.00    -0.165 F 
ATOM     42  F   UNL     1       9.666   3.286   2.716  0.00  0.00    -0.165 F 
ATOM     43  F   UNL     1       7.584   3.818   3.368  0.00  0.00    -0.165 F 
ENDBRANCH  37  40
ENDBRANCH  36  37
ENDBRANCH  35  36
ENDBRANCH  34  35
ENDBRANCH  32  34
ENDBRANCH  31  32
ENDBRANCH  30  31
ENDBRANCH  29  30
ENDBRANCH  28  29
ENDBRANCH  27  28
ENDBRANCH  26  27
ENDBRANCH  25  26
ENDBRANCH  24  25
ENDBRANCH  23  24
ENDBRANCH  11  23
TORSDOF 17
