REMARK  Name = 
REMARK  3 active torsions:
REMARK  status: ('A' for Active; 'I' for Inactive)
REMARK    1  A    between atoms: N_2  and  C_4
REMARK    2  A    between atoms: C_7  and  C_9
REMARK    3  A    between atoms: N_10  and  N_11
REMARK                            x       y       z     vdW  Elec       q    Type
REMARK                         _______ _______ _______ _____ _____    ______ ____
ROOT
ATOM      1  C   UNL     1       3.087   0.434  -0.010  0.00  0.00    +0.280 A 
ATOM      2  C   UNL     1       2.237   0.606   1.064  0.00  0.00    +0.076 A 
ATOM      3  C   UNL     1       1.093  -0.091   0.739  0.00  0.00    +0.053 A 
ATOM      4  C   UNL     1       1.320  -0.634  -0.518  0.00  0.00    +0.150 A 
ATOM      5  O   UNL     1       2.523  -0.309  -0.932  0.00  0.00    -0.433 OA
ENDROOT
BRANCH   1   7
ATOM      6  O   UNL     1       5.152   0.723  -1.252  0.00  0.00    -0.123 OA
ATOM      7  N   UNL     1       4.406   0.974  -0.125  0.00  0.00    +0.093 N 
ATOM      8  O   UNL     1       4.887   1.673   0.789  0.00  0.00    -0.123 OA
ENDBRANCH   1   7
BRANCH   4   9
ATOM      9  C   UNL     1       0.414  -1.499  -1.300  0.00  0.00    +0.177 C 
ATOM     10  N   UNL     1      -0.883  -1.489  -1.195  0.00  0.00    -0.179 NA
BRANCH  10  11
ATOM     11  N   UNL     1      -1.611  -0.559  -0.434  0.00  0.00    -0.155 N 
ATOM     12  C   UNL     1      -2.875  -0.895   0.205  0.00  0.00    +0.179 C 
ATOM     13  C   UNL     1      -3.586   0.458   0.446  0.00  0.00    +0.255 C 
ATOM     14  O   UNL     1      -2.791   1.428  -0.223  0.00  0.00    -0.447 OA
ATOM     15  C   UNL     1      -1.667   0.823  -0.731  0.00  0.00    +0.423 C 
ATOM     16  O   UNL     1      -0.813   1.427  -1.433  0.00  0.00    -0.224 OA
ENDBRANCH  10  11
ENDBRANCH   4   9
TORSDOF 3
