REMARK  Name = 
REMARK  7 active torsions:
REMARK  status: ('A' for Active; 'I' for Inactive)
REMARK    1  A    between atoms: N_1  and  S_2
REMARK    2  A    between atoms: S_2  and  C_5
REMARK    3  A    between atoms: C_9  and  N_10
REMARK    4  A    between atoms: N_10  and  C_11
REMARK    5  A    between atoms: C_11  and  C_12
REMARK    6  A    between atoms: C_17  and  C_19
REMARK    7  A    between atoms: C_19  and  O_20
REMARK                            x       y       z     vdW  Elec       q    Type
REMARK                         _______ _______ _______ _____ _____    ______ ____
ROOT
ATOM      1  C   UNL     1       3.008  -0.705  -0.236  0.00  0.00    +0.124 A 
ATOM      2  C   UNL     1       2.193  -1.742   0.254  0.00  0.00    +0.069 A 
ATOM      3 CL   UNL     1       2.830  -3.351   0.581  0.00  0.00    -0.081 Cl
ATOM      4  C   UNL     1       0.840  -1.508   0.508  0.00  0.00    +0.045 A 
ATOM      5  C   UNL     1       0.267  -0.246   0.275  0.00  0.00    +0.043 A 
ATOM      6  C   UNL     1       1.073   0.796  -0.241  0.00  0.00    +0.082 A 
ATOM      7  C   UNL     1       2.439   0.555  -0.477  0.00  0.00    +0.046 A 
ENDROOT
BRANCH   1   8
ATOM      8  S   UNL     1       4.729  -0.980  -0.556  0.00  0.00    +0.057 S 
ATOM      9  O   UNL     1       4.872  -2.064  -1.588  0.00  0.00    -0.153 OA
ATOM     10  O   UNL     1       5.404  -1.411   0.716  0.00  0.00    -0.153 OA
BRANCH   8  11
ATOM     11  N   UNL     1       5.521   0.443  -1.142  0.00  0.00    -0.203 NA
ATOM     12  H   UNL     1       5.383   1.197  -0.431  0.00  0.00    +0.144 HD
ATOM     13  H   UNL     1       5.036   0.737  -2.019  0.00  0.00    +0.144 HD
ENDBRANCH   8  11
ENDBRANCH   1   8
BRANCH   5  14
ATOM     14  N   UNL     1      -1.106  -0.007   0.634  0.00  0.00    -0.336 N 
ATOM     15  H   UNL     1      -1.353   0.906   1.079  0.00  0.00    +0.147 HD
BRANCH  14  16
ATOM     16  C   UNL     1      -2.133  -1.046   0.567  0.00  0.00    +0.176 C 
BRANCH  16  17
ATOM     17  C   UNL     1      -3.473  -0.427   0.331  0.00  0.00    +0.122 A 
ATOM     18  C   UNL     1      -3.910   0.116  -0.861  0.00  0.00    +0.046 A 
ATOM     19  C   UNL     1      -5.181   0.586  -0.608  0.00  0.00    +0.041 A 
ATOM     20  C   UNL     1      -5.437   0.304   0.720  0.00  0.00    +0.195 A 
ATOM     21  O   UNL     1      -4.399  -0.298   1.253  0.00  0.00    -0.466 OA
ENDBRANCH  16  17
ENDBRANCH  14  16
ENDBRANCH   5  14
BRANCH   6  22
ATOM     22  C   UNL     1       0.511   2.124  -0.589  0.00  0.00    +0.339 C 
ATOM     23  O   UNL     1       1.252   3.144  -0.591  0.00  0.00    -0.245 OA
BRANCH  22  24
ATOM     24  O   UNL     1      -0.825   2.255  -0.957  0.00  0.00    -0.477 OA
ATOM     25  H   UNL     1      -1.211   3.157  -1.207  0.00  0.00    +0.295 HD
ENDBRANCH  22  24
ENDBRANCH   6  22
TORSDOF 7
