REMARK  Name = 
REMARK  16 active torsions:
REMARK  status: ('A' for Active; 'I' for Inactive)
REMARK    1  A    between atoms: O_1  and  C_2
REMARK    2  A    between atoms: C_5  and  C_6
REMARK    3  A    between atoms: C_10  and  C_11
REMARK    4  A    between atoms: C_13  and  O_14
REMARK    5  A    between atoms: C_18  and  O_19
REMARK    6  A    between atoms: O_19  and  C_20
REMARK    7  A    between atoms: C_20  and  C_22
REMARK    8  A    between atoms: C_24  and  C_25
REMARK    9  A    between atoms: C_26  and  C_27
REMARK   10  A    between atoms: C_26  and  C_33
REMARK   11  A    between atoms: C_27  and  C_28
REMARK   12  A    between atoms: C_28  and  C_29
REMARK   13  A    between atoms: C_30  and  C_31
REMARK   14  A    between atoms: C_30  and  C_32
REMARK   15  A    between atoms: C_33  and  O_34
REMARK   16  A    between atoms: C_36  and  C_37
REMARK                            x       y       z     vdW  Elec       q    Type
REMARK                         _______ _______ _______ _____ _____    ______ ____
ROOT
ATOM      1  C   UNL     1      -5.364   2.913   1.318  0.00  0.00    +0.118 C 
ATOM      2  C   UNL     1      -4.314   3.449   0.337  0.00  0.00    +0.032 C 
ATOM      3  C   UNL     1      -2.887   2.946   0.642  0.00  0.00    +0.010 C 
ATOM      4  C   UNL     1      -2.782   1.467   1.171  0.00  0.00    -0.023 C 
ATOM      5  C   UNL     1      -2.720   1.523   2.737  0.00  0.00    +0.012 C 
ATOM      6  C   UNL     1      -4.091   0.700   0.741  0.00  0.00    +0.001 C 
ATOM      7  C   UNL     1      -4.034  -0.829   1.002  0.00  0.00    +0.005 C 
ATOM      8  C   UNL     1      -2.654  -1.488   0.803  0.00  0.00    +0.008 C 
ATOM      9  C   UNL     1      -1.645  -0.674  -0.062  0.00  0.00    -0.020 C 
ATOM     10  C   UNL     1      -2.246  -0.461  -1.501  0.00  0.00    +0.012 C 
ATOM     11  C   UNL     1      -1.441   0.707   0.677  0.00  0.00    +0.030 C 
ATOM     12  C   UNL     1      -0.267   1.551   0.070  0.00  0.00    +0.119 C 
ATOM     13  C   UNL     1       1.054   0.731   0.026  0.00  0.00    +0.040 C 
ATOM     14  C   UNL     1       0.833  -0.551  -0.824  0.00  0.00    +0.028 C 
ATOM     15  C   UNL     1       1.925  -1.535  -1.239  0.00  0.00    -0.016 C 
ATOM     16  C   UNL     1       1.267  -2.889  -1.425  0.00  0.00    +0.204 C 
ATOM     17  C   UNL     1      -0.209  -2.711  -1.021  0.00  0.00    +0.057 C 
ATOM     18  C   UNL     1      -0.236  -1.447  -0.135  0.00  0.00    -0.016 C 
ATOM     19  C   UNL     1       0.276  -1.928   1.282  0.00  0.00    +0.012 C 
ATOM     20  C   UNL     1       3.201  -1.266  -1.651  0.00  0.00    +0.040 C 
ATOM     21  C   UNL     1      -5.405   1.343   1.321  0.00  0.00    +0.018 C 
ATOM     22  C   UNL     1      -6.646   0.804   0.581  0.00  0.00    +0.010 C 
ENDROOT
BRANCH   1  23
ATOM     23  O   UNL     1      -6.620   3.461   1.000  0.00  0.00    -0.392 OA
ATOM     24  H   UNL     1      -6.592   4.425   1.238  0.00  0.00    +0.210 HD
ENDBRANCH   1  23
BRANCH  12  25
ATOM     25  O   UNL     1      -0.580   1.983  -1.230  0.00  0.00    -0.391 OA
ATOM     26  H   UNL     1       0.067   2.699  -1.464  0.00  0.00    +0.210 HD
ENDBRANCH  12  25
BRANCH  20  27
ATOM     27  C   UNL     1       4.142  -2.336  -2.111  0.00  0.00    +0.333 C 
ATOM     28  O   UNL     1       5.385  -2.159  -2.003  0.00  0.00    -0.245 OA
BRANCH  27  29
ATOM     29  O   UNL     1       3.689  -3.502  -2.722  0.00  0.00    -0.477 OA
ATOM     30  H   UNL     1       4.338  -4.150  -3.150  0.00  0.00    +0.295 HD
ENDBRANCH  27  29
ENDBRANCH  20  27
BRANCH  16  31
ATOM     31  O   UNL     1       1.905  -3.869  -0.604  0.00  0.00    -0.457 OA
BRANCH  31  32
ATOM     32  C   UNL     1       1.668  -5.241  -0.729  0.00  0.00    +0.305 C 
ATOM     33  O   UNL     1       0.963  -5.691  -1.673  0.00  0.00    -0.251 OA
ATOM     34  C   UNL     1       2.310  -6.192   0.224  0.00  0.00    +0.136 C 
ENDBRANCH  31  32
ENDBRANCH  16  31
BRANCH  20  35
ATOM     35  C   UNL     1       3.777   0.132  -1.662  0.00  0.00    +0.046 C 
BRANCH  35  36
ATOM     36  C   UNL     1       4.414   0.480  -0.312  0.00  0.00    +0.032 C 
BRANCH  36  37
ATOM     37  C   UNL     1       4.838   1.929  -0.277  0.00  0.00    -0.028 C 
ATOM     38  C   UNL     1       6.091   2.366  -0.545  0.00  0.00    -0.080 C 
ATOM     39  C   UNL     1       6.408   3.839  -0.452  0.00  0.00    +0.038 C 
ATOM     40  C   UNL     1       7.215   1.413  -0.872  0.00  0.00    +0.038 C 
ENDBRANCH  36  37
ENDBRANCH  35  36
ENDBRANCH  20  35
TORSDOF 9
