REMARK  Name = 
REMARK  5 active torsions:
REMARK  status: ('A' for Active; 'I' for Inactive)
REMARK    1  A    between atoms: N_1  and  C_2
REMARK    2  A    between atoms: C_2  and  C_3
REMARK    3  A    between atoms: C_3  and  C_4
REMARK    4  A    between atoms: C_4  and  C_5
REMARK    5  A    between atoms: C_5  and  O_6
REMARK                            x       y       z     vdW  Elec       q    Type
REMARK                         _______ _______ _______ _____ _____    ______ ____
ROOT
ATOM      1  C   UNL     1      -0.299   0.207   0.132  0.00  0.00    -0.007 C 
ATOM      2  C   UNL     1       0.124  -0.847  -0.951  0.00  0.00    +0.009 C 
ATOM      3  C   UNL     1       1.493  -0.535  -1.568  0.00  0.00    +0.001 C 
ATOM      4  C   UNL     1       2.612  -0.583  -0.509  0.00  0.00    +0.000 C 
ATOM      5  C   UNL     1       2.128  -0.202   0.904  0.00  0.00    +0.001 C 
ATOM      6  C   UNL     1       0.966   0.798   0.847  0.00  0.00    +0.009 C 
ENDROOT
BRANCH   1   7
ATOM      7  C   UNL     1      -1.076   1.366  -0.564  0.00  0.00    +0.085 C 
BRANCH   7   8
ATOM      8  N   UNL     1      -1.576   2.344   0.403  0.00  0.00    -0.329 NA
ATOM      9  H   UNL     1      -2.239   2.978  -0.099  0.00  0.00    +0.118 HD
ATOM     10  H   UNL     1      -0.778   2.944   0.713  0.00  0.00    +0.118 HD
ENDBRANCH   7   8
ENDBRANCH   1   7
BRANCH   1  11
ATOM     11  C   UNL     1      -1.203  -0.485   1.201  0.00  0.00    +0.128 C 
BRANCH  11  12
ATOM     12  C   UNL     1      -2.459  -1.082   0.633  0.00  0.00    +0.305 C 
ATOM     13  O   UNL     1      -3.525  -0.410   0.612  0.00  0.00    -0.251 OA
BRANCH  12  14
ATOM     14  O   UNL     1      -2.443  -2.373   0.114  0.00  0.00    -0.481 OA
ATOM     15  H   UNL     1      -3.280  -2.785  -0.280  0.00  0.00    +0.295 HD
ENDBRANCH  12  14
ENDBRANCH  11  12
ENDBRANCH   1  11
TORSDOF 5
