REMARK  Name = 
REMARK  42 active torsions:
REMARK  status: ('A' for Active; 'I' for Inactive)
REMARK    1  A    between atoms: C_2  and  N_3
REMARK    2  A    between atoms: N_3  and  C_4
REMARK    3  A    between atoms: C_4  and  C_5
REMARK    4  A    between atoms: C_5  and  O_6
REMARK    5  A    between atoms: C_5  and  C_7
REMARK    6  A    between atoms: C_7  and  O_8
REMARK    7  A    between atoms: C_7  and  C_9
REMARK    8  A    between atoms: C_9  and  O_10
REMARK    9  A    between atoms: C_9  and  C_11
REMARK   10  A    between atoms: C_11  and  O_12
REMARK   11  A    between atoms: C_11  and  C_13
REMARK   12  A    between atoms: C_13  and  O_14
REMARK   13  A    between atoms: C_15  and  N_16
REMARK   14  A    between atoms: N_16  and  C_17
REMARK   15  A    between atoms: C_17  and  C_18
REMARK   16  A    between atoms: C_18  and  O_19
REMARK   17  A    between atoms: C_18  and  C_20
REMARK   18  A    between atoms: C_20  and  O_21
REMARK   19  A    between atoms: C_20  and  C_22
REMARK   20  A    between atoms: C_22  and  O_23
REMARK   21  A    between atoms: C_22  and  C_24
REMARK   22  A    between atoms: C_24  and  O_25
REMARK   23  A    between atoms: C_24  and  C_26
REMARK   24  A    between atoms: C_26  and  O_27
REMARK   25  A    between atoms: O_28  and  C_29
REMARK   26  A    between atoms: C_29  and  C_31
REMARK   27  A    between atoms: C_31  and  N_32
REMARK   28  A    between atoms: N_32  and  C_33
REMARK   29  A    between atoms: N_32  and  C_51
REMARK   30  A    between atoms: C_33  and  C_34
REMARK   31  A    between atoms: C_34  and  N_35
REMARK   32  A    between atoms: N_35  and  C_36
REMARK   33  A    between atoms: N_35  and  C_47
REMARK   34  A    between atoms: C_36  and  C_37
REMARK   35  A    between atoms: C_37  and  N_38
REMARK   36  A    between atoms: N_38  and  C_39
REMARK   37  A    between atoms: N_38  and  C_43
REMARK   38  A    between atoms: C_39  and  C_40
REMARK   39  A    between atoms: C_40  and  O_41
REMARK   40  A    between atoms: C_43  and  C_44
REMARK   41  A    between atoms: C_47  and  C_48
REMARK   42  A    between atoms: C_51  and  C_52
REMARK                            x       y       z     vdW  Elec       q    Type
REMARK                         _______ _______ _______ _____ _____    ______ ____
ROOT
ATOM      1 GD   UNL     1       1.011   0.096  -0.027  0.00  0.00    +0.000 Gd
ENDROOT
TORSDOF 0
REMARK  Name = 
REMARK  42 active torsions:
REMARK  status: ('A' for Active; 'I' for Inactive)
REMARK    1  A    between atoms: C_2  and  N_3
REMARK    2  A    between atoms: N_3  and  C_4
REMARK    3  A    between atoms: C_4  and  C_5
REMARK    4  A    between atoms: C_5  and  O_6
REMARK    5  A    between atoms: C_5  and  C_7
REMARK    6  A    between atoms: C_7  and  O_8
REMARK    7  A    between atoms: C_7  and  C_9
REMARK    8  A    between atoms: C_9  and  O_10
REMARK    9  A    between atoms: C_9  and  C_11
REMARK   10  A    between atoms: C_11  and  O_12
REMARK   11  A    between atoms: C_11  and  C_13
REMARK   12  A    between atoms: C_13  and  O_14
REMARK   13  A    between atoms: C_15  and  N_16
REMARK   14  A    between atoms: N_16  and  C_17
REMARK   15  A    between atoms: C_17  and  C_18
REMARK   16  A    between atoms: C_18  and  O_19
REMARK   17  A    between atoms: C_18  and  C_20
REMARK   18  A    between atoms: C_20  and  O_21
REMARK   19  A    between atoms: C_20  and  C_22
REMARK   20  A    between atoms: C_22  and  O_23
REMARK   21  A    between atoms: C_22  and  C_24
REMARK   22  A    between atoms: C_24  and  O_25
REMARK   23  A    between atoms: C_24  and  C_26
REMARK   24  A    between atoms: C_26  and  O_27
REMARK   25  A    between atoms: O_28  and  C_29
REMARK   26  A    between atoms: C_29  and  C_31
REMARK   27  A    between atoms: C_31  and  N_32
REMARK   28  A    between atoms: N_32  and  C_33
REMARK   29  A    between atoms: N_32  and  C_51
REMARK   30  A    between atoms: C_33  and  C_34
REMARK   31  A    between atoms: C_34  and  N_35
REMARK   32  A    between atoms: N_35  and  C_36
REMARK   33  A    between atoms: N_35  and  C_47
REMARK   34  A    between atoms: C_36  and  C_37
REMARK   35  A    between atoms: C_37  and  N_38
REMARK   36  A    between atoms: N_38  and  C_39
REMARK   37  A    between atoms: N_38  and  C_43
REMARK   38  A    between atoms: C_39  and  C_40
REMARK   39  A    between atoms: C_40  and  O_41
REMARK   40  A    between atoms: C_43  and  C_44
REMARK   41  A    between atoms: C_47  and  C_48
REMARK   42  A    between atoms: C_51  and  C_52
REMARK                            x       y       z     vdW  Elec       q    Type
REMARK                         _______ _______ _______ _____ _____    ______ ____
ROOT
ATOM      1  C   UNL     1      -7.026  -1.120   0.640  0.00  0.00    +0.000 C 
ENDROOT
BRANCH   1   2
ATOM      2  O   UNL     1      -7.592  -1.492  -0.608  0.00  0.00    +0.000 OA
ATOM      3  H   UNL     1      -8.575  -1.305  -0.597  0.00  0.00    +0.000 HD
ENDBRANCH   1   2
BRANCH   1   4
ATOM      4  C   UNL     1      -7.257   0.363   0.881  0.00  0.00    +0.000 C 
BRANCH   4   5
ATOM      5  O   UNL     1      -8.652   0.628   0.896  0.00  0.00    +0.000 OA
ATOM      6  H   UNL     1      -9.132   1.470   1.142  0.00  0.00    +0.000 HD
ENDBRANCH   4   5
BRANCH   4   7
ATOM      7  C   UNL     1      -6.651   0.760   2.217  0.00  0.00    +0.000 C 
BRANCH   7   9
ATOM      8  C   UNL     1      -5.009   2.095   1.085  0.00  0.00    +0.000 C 
ATOM      9  N   UNL     1      -5.211   1.003   2.047  0.00  0.00    +0.000 NA
ATOM     10  H   UNL     1      -4.763   0.155   1.698  0.00  0.00    +0.000 HD
ENDBRANCH   7   9
ENDBRANCH   4   7
ENDBRANCH   1   4
BRANCH   1  11
ATOM     11  C   UNL     1      -5.533  -1.405   0.639  0.00  0.00    +0.000 C 
BRANCH  11  12
ATOM     12  O   UNL     1      -5.281  -2.608  -0.072  0.00  0.00    +0.000 OA
ATOM     13  H   UNL     1      -5.364  -3.214  -0.863  0.00  0.00    +0.000 HD
ENDBRANCH  11  12
BRANCH  11  14
ATOM     14  C   UNL     1      -5.026  -1.550   2.065  0.00  0.00    +0.000 C 
BRANCH  14  15
ATOM     15  O   UNL     1      -3.606  -1.550   2.065  0.00  0.00    +0.000 OA
ATOM     16  H   UNL     1      -3.255  -2.395   1.662  0.00  0.00    +0.000 HD
ENDBRANCH  14  15
BRANCH  14  17
ATOM     17  C   UNL     1      -5.533  -2.857   2.652  0.00  0.00    +0.000 C 
BRANCH  17  18
ATOM     18  O   UNL     1      -5.060  -2.993   3.984  0.00  0.00    +0.000 OA
ATOM     19  H   UNL     1      -4.060  -2.993   3.984  0.00  0.00    +0.000 HD
ENDBRANCH  17  18
ENDBRANCH  14  17
ENDBRANCH  11  14
ENDBRANCH   1  11
TORSDOF 11
REMARK  Name = 
REMARK  42 active torsions:
REMARK  status: ('A' for Active; 'I' for Inactive)
REMARK    1  A    between atoms: C_2  and  N_3
REMARK    2  A    between atoms: N_3  and  C_4
REMARK    3  A    between atoms: C_4  and  C_5
REMARK    4  A    between atoms: C_5  and  O_6
REMARK    5  A    between atoms: C_5  and  C_7
REMARK    6  A    between atoms: C_7  and  O_8
REMARK    7  A    between atoms: C_7  and  C_9
REMARK    8  A    between atoms: C_9  and  O_10
REMARK    9  A    between atoms: C_9  and  C_11
REMARK   10  A    between atoms: C_11  and  O_12
REMARK   11  A    between atoms: C_11  and  C_13
REMARK   12  A    between atoms: C_13  and  O_14
REMARK   13  A    between atoms: C_15  and  N_16
REMARK   14  A    between atoms: N_16  and  C_17
REMARK   15  A    between atoms: C_17  and  C_18
REMARK   16  A    between atoms: C_18  and  O_19
REMARK   17  A    between atoms: C_18  and  C_20
REMARK   18  A    between atoms: C_20  and  O_21
REMARK   19  A    between atoms: C_20  and  C_22
REMARK   20  A    between atoms: C_22  and  O_23
REMARK   21  A    between atoms: C_22  and  C_24
REMARK   22  A    between atoms: C_24  and  O_25
REMARK   23  A    between atoms: C_24  and  C_26
REMARK   24  A    between atoms: C_26  and  O_27
REMARK   25  A    between atoms: O_28  and  C_29
REMARK   26  A    between atoms: C_29  and  C_31
REMARK   27  A    between atoms: C_31  and  N_32
REMARK   28  A    between atoms: N_32  and  C_33
REMARK   29  A    between atoms: N_32  and  C_51
REMARK   30  A    between atoms: C_33  and  C_34
REMARK   31  A    between atoms: C_34  and  N_35
REMARK   32  A    between atoms: N_35  and  C_36
REMARK   33  A    between atoms: N_35  and  C_47
REMARK   34  A    between atoms: C_36  and  C_37
REMARK   35  A    between atoms: C_37  and  N_38
REMARK   36  A    between atoms: N_38  and  C_39
REMARK   37  A    between atoms: N_38  and  C_43
REMARK   38  A    between atoms: C_39  and  C_40
REMARK   39  A    between atoms: C_40  and  O_41
REMARK   40  A    between atoms: C_43  and  C_44
REMARK   41  A    between atoms: C_47  and  C_48
REMARK   42  A    between atoms: C_51  and  C_52
REMARK                            x       y       z     vdW  Elec       q    Type
REMARK                         _______ _______ _______ _____ _____    ______ ____
ROOT
ATOM      1  C   UNL     1      -6.302   0.175  -0.191  0.00  0.00    +0.000 C 
ENDROOT
BRANCH   1   2
ATOM      2  O   UNL     1      -6.760   0.478  -1.500  0.00  0.00    +0.000 OA
ATOM      3  H   UNL     1      -7.451  -0.191  -1.775  0.00  0.00    +0.000 HD
ENDBRANCH   1   2
BRANCH   1   4
ATOM      4  C   UNL     1      -7.470   0.227   0.780  0.00  0.00    +0.000 C 
BRANCH   4   5
ATOM      5  O   UNL     1      -8.452  -0.723   0.390  0.00  0.00    +0.000 OA
ATOM      6  H   UNL     1      -9.061  -0.881  -0.387  0.00  0.00    +0.000 HD
ENDBRANCH   4   5
BRANCH   4   7
ATOM      7  C   UNL     1      -6.980  -0.097   2.181  0.00  0.00    +0.000 C 
BRANCH   7   9
ATOM      8  C   UNL     1      -7.912  -2.297   1.951  0.00  0.00    +0.000 C 
ATOM      9  N   UNL     1      -7.917  -1.070   2.761  0.00  0.00    +0.000 NA
ATOM     10  H   UNL     1      -8.856  -0.673   2.770  0.00  0.00    +0.000 HD
ENDBRANCH   7   9
ENDBRANCH   4   7
ENDBRANCH   1   4
BRANCH   1  11
ATOM     11  C   UNL     1      -5.482   1.359   0.295  0.00  0.00    +0.000 C 
BRANCH  11  12
ATOM     12  O   UNL     1      -6.220   2.076   1.274  0.00  0.00    +0.000 OA
ATOM     13  H   UNL     1      -7.174   2.083   0.974  0.00  0.00    +0.000 HD
ENDBRANCH  11  12
BRANCH  11  14
ATOM     14  C   UNL     1      -4.975   2.242  -0.834  0.00  0.00    +0.000 C 
BRANCH  14  15
ATOM     15  O   UNL     1      -3.555   2.242  -0.834  0.00  0.00    +0.000 OA
ATOM     16  H   UNL     1      -3.297   2.790  -0.038  0.00  0.00    +0.000 HD
ENDBRANCH  14  15
BRANCH  14  17
ATOM     17  C   UNL     1      -5.482   3.661  -0.634  0.00  0.00    +0.000 C 
BRANCH  17  18
ATOM     18  O   UNL     1      -5.009   4.486  -1.689  0.00  0.00    +0.000 OA
ATOM     19  H   UNL     1      -4.009   4.486  -1.689  0.00  0.00    +0.000 HD
ENDBRANCH  17  18
ENDBRANCH  14  17
ENDBRANCH  11  14
ENDBRANCH   1  11
TORSDOF 11
REMARK  Name = 
REMARK  42 active torsions:
REMARK  status: ('A' for Active; 'I' for Inactive)
REMARK    1  A    between atoms: C_2  and  N_3
REMARK    2  A    between atoms: N_3  and  C_4
REMARK    3  A    between atoms: C_4  and  C_5
REMARK    4  A    between atoms: C_5  and  O_6
REMARK    5  A    between atoms: C_5  and  C_7
REMARK    6  A    between atoms: C_7  and  O_8
REMARK    7  A    between atoms: C_7  and  C_9
REMARK    8  A    between atoms: C_9  and  O_10
REMARK    9  A    between atoms: C_9  and  C_11
REMARK   10  A    between atoms: C_11  and  O_12
REMARK   11  A    between atoms: C_11  and  C_13
REMARK   12  A    between atoms: C_13  and  O_14
REMARK   13  A    between atoms: C_15  and  N_16
REMARK   14  A    between atoms: N_16  and  C_17
REMARK   15  A    between atoms: C_17  and  C_18
REMARK   16  A    between atoms: C_18  and  O_19
REMARK   17  A    between atoms: C_18  and  C_20
REMARK   18  A    between atoms: C_20  and  O_21
REMARK   19  A    between atoms: C_20  and  C_22
REMARK   20  A    between atoms: C_22  and  O_23
REMARK   21  A    between atoms: C_22  and  C_24
REMARK   22  A    between atoms: C_24  and  O_25
REMARK   23  A    between atoms: C_24  and  C_26
REMARK   24  A    between atoms: C_26  and  O_27
REMARK   25  A    between atoms: O_28  and  C_29
REMARK   26  A    between atoms: C_29  and  C_31
REMARK   27  A    between atoms: C_31  and  N_32
REMARK   28  A    between atoms: N_32  and  C_33
REMARK   29  A    between atoms: N_32  and  C_51
REMARK   30  A    between atoms: C_33  and  C_34
REMARK   31  A    between atoms: C_34  and  N_35
REMARK   32  A    between atoms: N_35  and  C_36
REMARK   33  A    between atoms: N_35  and  C_47
REMARK   34  A    between atoms: C_36  and  C_37
REMARK   35  A    between atoms: C_37  and  N_38
REMARK   36  A    between atoms: N_38  and  C_39
REMARK   37  A    between atoms: N_38  and  C_43
REMARK   38  A    between atoms: C_39  and  C_40
REMARK   39  A    between atoms: C_40  and  O_41
REMARK   40  A    between atoms: C_43  and  C_44
REMARK   41  A    between atoms: C_47  and  C_48
REMARK   42  A    between atoms: C_51  and  C_52
REMARK                            x       y       z     vdW  Elec       q    Type
REMARK                         _______ _______ _______ _____ _____    ______ ____
ROOT
ATOM      1  N   UNL     1      -3.254   3.517  -0.089  0.00  0.00    +0.000 NA
ENDROOT
BRANCH   1   2
ATOM      2  C   UNL     1      -3.744   2.203   0.351  0.00  0.00    +0.000 C 
BRANCH   2   3
ATOM      3  C   UNL     1      -3.237   1.129  -0.599  0.00  0.00    +0.000 C 
BRANCH   3   4
ATOM      4  N   UNL     1      -1.767   1.129  -0.599  0.00  0.00    +0.000 NA
BRANCH   4   5
ATOM      5  C   UNL     1      -1.277   0.853   0.759  0.00  0.00    +0.000 C 
BRANCH   5   6
ATOM      6  C   UNL     1       0.243   0.853   0.759  0.00  0.00    +0.000 C 
ATOM      7  O   UNL     1       0.878   1.677   1.489  0.00  0.00    +0.000 OA
BRANCH   6   8
ATOM      8  O   UNL     1       0.953  -0.068  -0.056  0.00  0.00    +0.000 OA
ATOM      9  H   UNL     1       1.953  -0.068  -0.056  0.00  0.00    +0.000 HD
ENDBRANCH   6   8
ENDBRANCH   5   6
ENDBRANCH   4   5
BRANCH   4  10
ATOM     10  C   UNL     1      -1.277   2.444  -1.039  0.00  0.00    +0.000 C 
BRANCH  10  11
ATOM     11  C   UNL     1      -1.784   3.517  -0.089  0.00  0.00    +0.000 C 
ATOM     12  O   UNL     1      -0.861   4.325   0.627  0.00  0.00    +0.000 OA
ATOM     13  O   UNL     1      -3.034   3.691   0.065  0.00  0.00    +0.000 OA
ENDBRANCH  10  11
ENDBRANCH   4  10
ENDBRANCH   3   4
ENDBRANCH   2   3
ENDBRANCH   1   2
BRANCH   1  14
ATOM     14  C   UNL     1      -3.744   4.555   0.830  0.00  0.00    +0.000 C 
BRANCH  14  15
ATOM     15  C   UNL     1      -3.237   4.269   2.234  0.00  0.00    +0.000 C 
BRANCH  15  16
ATOM     16  N   UNL     1      -1.767   4.269   2.234  0.00  0.00    +0.000 NA
BRANCH  16  17
ATOM     17  C   UNL     1      -1.277   3.992   3.592  0.00  0.00    +0.000 C 
BRANCH  17  18
ATOM     18  C   UNL     1      -1.784   2.633   4.047  0.00  0.00    +0.000 C 
ATOM     19  O   UNL     1      -3.034   2.413   4.120  0.00  0.00    +0.000 OA
BRANCH  18  20
ATOM     20  O   UNL     1      -0.861   1.610   4.389  0.00  0.00    +0.000 OA
ATOM     21  H   UNL     1       0.122   1.783   4.331  0.00  0.00    +0.000 HD
ENDBRANCH  18  20
ENDBRANCH  17  18
ENDBRANCH  16  17
BRANCH  16  22
ATOM     22  C   UNL     1      -1.277   3.231   1.316  0.00  0.00    +0.000 C 
BRANCH  22  23
ATOM     23  C   UNL     1      -1.784   1.872   1.770  0.00  0.00    +0.000 C 
ATOM     24  O   UNL     1      -2.600   1.094   0.907  0.00  0.00    +0.000 OA
ATOM     25  O   UNL     1      -1.477   1.432   2.922  0.00  0.00    +0.000 OA
ENDBRANCH  22  23
ENDBRANCH  16  22
ENDBRANCH  15  16
ENDBRANCH  14  15
ENDBRANCH   1  14
BRANCH   1  26
ATOM     26  C   UNL     1      -1.784   3.517  -0.089  0.00  0.00    +0.000 C 
BRANCH  26  27
ATOM     27  C   UNL     1      -1.277   3.231   1.316  0.00  0.00    +0.000 C 
ATOM     28  O   UNL     1      -0.461   2.095   1.558  0.00  0.00    +0.000 OA
ATOM     29  O   UNL     1      -1.584   4.009   2.273  0.00  0.00    +0.000 OA
ENDBRANCH  26  27
ENDBRANCH   1  26
TORSDOF 18
