REMARK  Name = 
REMARK  23 active torsions:
REMARK  status: ('A' for Active; 'I' for Inactive)
REMARK    1  A    between atoms: C_7  and  C_9
REMARK    2  A    between atoms: C_9  and  N_10
REMARK    3  A    between atoms: N_10  and  C_11
REMARK    4  A    between atoms: N_10  and  C_22
REMARK    5  A    between atoms: C_11  and  C_12
REMARK    6  A    between atoms: C_12  and  N_13
REMARK    7  A    between atoms: N_13  and  C_14
REMARK    8  A    between atoms: N_13  and  C_18
REMARK    9  A    between atoms: C_14  and  C_15
REMARK   10  A    between atoms: C_18  and  C_19
REMARK   11  A    between atoms: C_22  and  C_23
REMARK   12  A    between atoms: C_23  and  C_24
REMARK   13  A    between atoms: C_23  and  N_48
REMARK   14  A    between atoms: C_24  and  O_25
REMARK   15  A    between atoms: O_25  and  P_26
REMARK   16  A    between atoms: P_26  and  O_29
REMARK   17  A    between atoms: O_29  and  C_30
REMARK   18  A    between atoms: C_33  and  C_36
REMARK   19  A    between atoms: C_33  and  C_42
REMARK   20  A    between atoms: N_48  and  C_49
REMARK   21  A    between atoms: N_48  and  C_53
REMARK   22  A    between atoms: C_49  and  C_50
REMARK   23  A    between atoms: C_53  and  C_54
REMARK                            x       y       z     vdW  Elec       q    Type
REMARK                         _______ _______ _______ _____ _____    ______ ____
ROOT
ATOM      1  O   HOH     1       0.950  -0.031  -0.081  0.00  0.00    +0.000 OA
ATOM      2  H   HOH     0       0.617   0.048   0.859  0.00  0.00    +0.000 HD
ATOM      3  H   HOH     0       1.950  -0.031  -0.081  0.00  0.00    +0.000 HD
ENDROOT
TORSDOF 0
REMARK  Name = 
REMARK  23 active torsions:
REMARK  status: ('A' for Active; 'I' for Inactive)
REMARK    1  A    between atoms: C_7  and  C_9
REMARK    2  A    between atoms: C_9  and  N_10
REMARK    3  A    between atoms: N_10  and  C_11
REMARK    4  A    between atoms: N_10  and  C_22
REMARK    5  A    between atoms: C_11  and  C_12
REMARK    6  A    between atoms: C_12  and  N_13
REMARK    7  A    between atoms: N_13  and  C_14
REMARK    8  A    between atoms: N_13  and  C_18
REMARK    9  A    between atoms: C_14  and  C_15
REMARK   10  A    between atoms: C_18  and  C_19
REMARK   11  A    between atoms: C_22  and  C_23
REMARK   12  A    between atoms: C_23  and  C_24
REMARK   13  A    between atoms: C_23  and  N_48
REMARK   14  A    between atoms: C_24  and  O_25
REMARK   15  A    between atoms: O_25  and  P_26
REMARK   16  A    between atoms: P_26  and  O_29
REMARK   17  A    between atoms: O_29  and  C_30
REMARK   18  A    between atoms: C_33  and  C_36
REMARK   19  A    between atoms: C_33  and  C_42
REMARK   20  A    between atoms: N_48  and  C_49
REMARK   21  A    between atoms: N_48  and  C_53
REMARK   22  A    between atoms: C_49  and  C_50
REMARK   23  A    between atoms: C_53  and  C_54
REMARK                            x       y       z     vdW  Elec       q    Type
REMARK                         _______ _______ _______ _____ _____    ______ ____
ROOT
ATOM      1 NA   UNL     1       1.023  -0.062   0.075  0.00  0.00    +0.000 Na
ENDROOT
TORSDOF 0
REMARK  Name = 
REMARK  23 active torsions:
REMARK  status: ('A' for Active; 'I' for Inactive)
REMARK    1  A    between atoms: C_7  and  C_9
REMARK    2  A    between atoms: C_9  and  N_10
REMARK    3  A    between atoms: N_10  and  C_11
REMARK    4  A    between atoms: N_10  and  C_22
REMARK    5  A    between atoms: C_11  and  C_12
REMARK    6  A    between atoms: C_12  and  N_13
REMARK    7  A    between atoms: N_13  and  C_14
REMARK    8  A    between atoms: N_13  and  C_18
REMARK    9  A    between atoms: C_14  and  C_15
REMARK   10  A    between atoms: C_18  and  C_19
REMARK   11  A    between atoms: C_22  and  C_23
REMARK   12  A    between atoms: C_23  and  C_24
REMARK   13  A    between atoms: C_23  and  N_48
REMARK   14  A    between atoms: C_24  and  O_25
REMARK   15  A    between atoms: O_25  and  P_26
REMARK   16  A    between atoms: P_26  and  O_29
REMARK   17  A    between atoms: O_29  and  C_30
REMARK   18  A    between atoms: C_33  and  C_36
REMARK   19  A    between atoms: C_33  and  C_42
REMARK   20  A    between atoms: N_48  and  C_49
REMARK   21  A    between atoms: N_48  and  C_53
REMARK   22  A    between atoms: C_49  and  C_50
REMARK   23  A    between atoms: C_53  and  C_54
REMARK                            x       y       z     vdW  Elec       q    Type
REMARK                         _______ _______ _______ _____ _____    ______ ____
ROOT
ATOM      1 NA   UNL     1       1.045  -0.033   0.083  0.00  0.00    +0.000 Na
ENDROOT
TORSDOF 0
REMARK  Name = 
REMARK  23 active torsions:
REMARK  status: ('A' for Active; 'I' for Inactive)
REMARK    1  A    between atoms: C_7  and  C_9
REMARK    2  A    between atoms: C_9  and  N_10
REMARK    3  A    between atoms: N_10  and  C_11
REMARK    4  A    between atoms: N_10  and  C_22
REMARK    5  A    between atoms: C_11  and  C_12
REMARK    6  A    between atoms: C_12  and  N_13
REMARK    7  A    between atoms: N_13  and  C_14
REMARK    8  A    between atoms: N_13  and  C_18
REMARK    9  A    between atoms: C_14  and  C_15
REMARK   10  A    between atoms: C_18  and  C_19
REMARK   11  A    between atoms: C_22  and  C_23
REMARK   12  A    between atoms: C_23  and  C_24
REMARK   13  A    between atoms: C_23  and  N_48
REMARK   14  A    between atoms: C_24  and  O_25
REMARK   15  A    between atoms: O_25  and  P_26
REMARK   16  A    between atoms: P_26  and  O_29
REMARK   17  A    between atoms: O_29  and  C_30
REMARK   18  A    between atoms: C_33  and  C_36
REMARK   19  A    between atoms: C_33  and  C_42
REMARK   20  A    between atoms: N_48  and  C_49
REMARK   21  A    between atoms: N_48  and  C_53
REMARK   22  A    between atoms: C_49  and  C_50
REMARK   23  A    between atoms: C_53  and  C_54
REMARK                            x       y       z     vdW  Elec       q    Type
REMARK                         _______ _______ _______ _____ _____    ______ ____
ROOT
ATOM      1 NA   UNL     1       1.046   0.055   0.070  0.00  0.00    +0.000 Na
ENDROOT
TORSDOF 0
REMARK  Name = 
REMARK  23 active torsions:
REMARK  status: ('A' for Active; 'I' for Inactive)
REMARK    1  A    between atoms: C_7  and  C_9
REMARK    2  A    between atoms: C_9  and  N_10
REMARK    3  A    between atoms: N_10  and  C_11
REMARK    4  A    between atoms: N_10  and  C_22
REMARK    5  A    between atoms: C_11  and  C_12
REMARK    6  A    between atoms: C_12  and  N_13
REMARK    7  A    between atoms: N_13  and  C_14
REMARK    8  A    between atoms: N_13  and  C_18
REMARK    9  A    between atoms: C_14  and  C_15
REMARK   10  A    between atoms: C_18  and  C_19
REMARK   11  A    between atoms: C_22  and  C_23
REMARK   12  A    between atoms: C_23  and  C_24
REMARK   13  A    between atoms: C_23  and  N_48
REMARK   14  A    between atoms: C_24  and  O_25
REMARK   15  A    between atoms: O_25  and  P_26
REMARK   16  A    between atoms: P_26  and  O_29
REMARK   17  A    between atoms: O_29  and  C_30
REMARK   18  A    between atoms: C_33  and  C_36
REMARK   19  A    between atoms: C_33  and  C_42
REMARK   20  A    between atoms: N_48  and  C_49
REMARK   21  A    between atoms: N_48  and  C_53
REMARK   22  A    between atoms: C_49  and  C_50
REMARK   23  A    between atoms: C_53  and  C_54
REMARK                            x       y       z     vdW  Elec       q    Type
REMARK                         _______ _______ _______ _____ _____    ______ ____
ROOT
ATOM      1 GD   UNL     1       1.053   0.075   0.039  0.00  0.00    +0.000 Gd
ENDROOT
TORSDOF 0
REMARK  Name = 
REMARK  23 active torsions:
REMARK  status: ('A' for Active; 'I' for Inactive)
REMARK    1  A    between atoms: C_7  and  C_9
REMARK    2  A    between atoms: C_9  and  N_10
REMARK    3  A    between atoms: N_10  and  C_11
REMARK    4  A    between atoms: N_10  and  C_22
REMARK    5  A    between atoms: C_11  and  C_12
REMARK    6  A    between atoms: C_12  and  N_13
REMARK    7  A    between atoms: N_13  and  C_14
REMARK    8  A    between atoms: N_13  and  C_18
REMARK    9  A    between atoms: C_14  and  C_15
REMARK   10  A    between atoms: C_18  and  C_19
REMARK   11  A    between atoms: C_22  and  C_23
REMARK   12  A    between atoms: C_23  and  C_24
REMARK   13  A    between atoms: C_23  and  N_48
REMARK   14  A    between atoms: C_24  and  O_25
REMARK   15  A    between atoms: O_25  and  P_26
REMARK   16  A    between atoms: P_26  and  O_29
REMARK   17  A    between atoms: O_29  and  C_30
REMARK   18  A    between atoms: C_33  and  C_36
REMARK   19  A    between atoms: C_33  and  C_42
REMARK   20  A    between atoms: N_48  and  C_49
REMARK   21  A    between atoms: N_48  and  C_53
REMARK   22  A    between atoms: C_49  and  C_50
REMARK   23  A    between atoms: C_53  and  C_54
REMARK                            x       y       z     vdW  Elec       q    Type
REMARK                         _______ _______ _______ _____ _____    ______ ____
ROOT
ATOM      1  C   UNL     1       4.664  -2.416   1.096  0.00  0.00    +0.000 C 
ENDROOT
BRANCH   1   2
ATOM      2  C   UNL     1       3.170  -2.615   0.903  0.00  0.00    +0.000 C 
BRANCH   2   3
ATOM      3  N   UNL     1       2.815  -2.331  -0.495  0.00  0.00    +0.000 NA
BRANCH   3   4
ATOM      4  C   UNL     1       3.170  -0.942  -0.818  0.00  0.00    +0.000 C 
BRANCH   4   6
ATOM      5  O   UNL     1       0.990   0.002   0.099  0.00  0.00    +0.000 OA
ATOM      6  C   UNL     1       2.410   0.002   0.099  0.00  0.00    +0.000 C 
ATOM      7  O   UNL     1       3.045   0.791   0.867  0.00  0.00    +0.000 OA
ENDBRANCH   4   6
ENDBRANCH   3   4
BRANCH   3   8
ATOM      8  C   UNL     1       3.550  -3.244  -1.383  0.00  0.00    +0.000 C 
BRANCH   8   9
ATOM      9  C   UNL     1       5.044  -3.045  -1.189  0.00  0.00    +0.000 C 
BRANCH   9  10
ATOM     10  N   UNL     1       5.399  -3.329   0.209  0.00  0.00    +0.000 NA
BRANCH  10  11
ATOM     11  C   UNL     1       6.845  -3.136   0.396  0.00  0.00    +0.000 C 
BRANCH  11  12
ATOM     12  C   UNL     1       7.212  -1.700   0.062  0.00  0.00    +0.000 C 
ATOM     13  O   UNL     1       7.803  -0.870   1.051  0.00  0.00    +0.000 OA
ATOM     14  O   UNL     1       6.989  -1.241  -1.102  0.00  0.00    +0.000 OA
ENDBRANCH  11  12
ENDBRANCH  10  11
BRANCH  10  15
ATOM     15  C   UNL     1       4.664  -2.416   1.096  0.00  0.00    +0.000 C 
BRANCH  15  16
ATOM     16  C   UNL     1       5.032  -0.980   0.762  0.00  0.00    +0.000 C 
ATOM     17  O   UNL     1       4.026  -0.069   0.345  0.00  0.00    +0.000 OA
ATOM     18  O   UNL     1       6.239  -0.594   0.857  0.00  0.00    +0.000 OA
ENDBRANCH  15  16
ENDBRANCH  10  15
ENDBRANCH   9  10
ENDBRANCH   8   9
ENDBRANCH   3   8
ENDBRANCH   2   3
ENDBRANCH   1   2
BRANCH   1  19
ATOM     19  C   UNL     1       5.032  -0.980   0.762  0.00  0.00    +0.000 C 
BRANCH  19  20
ATOM     20  O   UNL     1       4.322  -0.098   1.620  0.00  0.00    +0.000 OA
BRANCH  20  21
ATOM     21  P   UNL     1       2.621  -0.325   1.399  0.00  0.00    +0.000 P 
ATOM     22  O   UNL     1       2.349   0.101   3.054  0.00  0.00    +0.000 OA
ATOM     23  O   UNL     1       2.616   0.772   0.306  0.00  0.00    +0.000 OA
BRANCH  21  24
ATOM     24  O   UNL     1       0.920  -0.551   1.179  0.00  0.00    +0.000 OA
BRANCH  24  25
ATOM     25  C   UNL     1       0.210   0.317   2.049  0.00  0.00    +0.000 C 
ATOM     26  C   UNL     1       0.526  -0.103   3.490  0.00  0.00    +0.000 C 
ATOM     27  C   UNL     1      -0.028   0.892   4.503  0.00  0.00    +0.000 C 
ATOM     28  C   UNL     1       0.490   2.297   4.237  0.00  0.00    +0.000 C 
ATOM     29  C   UNL     1       0.158   2.713   2.809  0.00  0.00    +0.000 C 
ATOM     30  C   UNL     1       0.726   1.731   1.795  0.00  0.00    +0.000 C 
BRANCH  28  31
ATOM     31  C   UNL     1       1.998   2.316   4.424  0.00  0.00    +0.000 A 
ATOM     32  C   UNL     1       2.654   1.148   4.777  0.00  0.00    +0.000 A 
ATOM     33  C   UNL     1       3.988   1.346   5.204  0.00  0.00    +0.000 A 
ATOM     34  C   UNL     1       4.696   2.436   4.968  0.00  0.00    +0.000 A 
ATOM     35  C   UNL     1       3.998   3.537   4.556  0.00  0.00    +0.000 A 
ATOM     36  C   UNL     1       2.663   3.452   4.245  0.00  0.00    +0.000 A 
ENDBRANCH  28  31
BRANCH  28  37
ATOM     37  C   UNL     1      -0.163   3.266   5.208  0.00  0.00    +0.000 A 
ATOM     38  C   UNL     1       0.656   3.843   6.165  0.00  0.00    +0.000 A 
ATOM     39  C   UNL     1      -0.042   4.347   7.288  0.00  0.00    +0.000 A 
ATOM     40  C   UNL     1      -1.338   4.599   7.314  0.00  0.00    +0.000 A 
ATOM     41  C   UNL     1      -2.082   4.057   6.303  0.00  0.00    +0.000 A 
ATOM     42  C   UNL     1      -1.480   3.435   5.237  0.00  0.00    +0.000 A 
ENDBRANCH  28  37
ENDBRANCH  24  25
ENDBRANCH  21  24
ENDBRANCH  20  21
ENDBRANCH  19  20
ENDBRANCH   1  19
BRANCH   1  43
ATOM     43  N   UNL     1       5.019  -2.701   2.494  0.00  0.00    +0.000 NA
BRANCH  43  44
ATOM     44  C   UNL     1       6.465  -2.508   2.681  0.00  0.00    +0.000 C 
BRANCH  44  45
ATOM     45  C   UNL     1       6.832  -1.071   2.347  0.00  0.00    +0.000 C 
ATOM     46  O   UNL     1       7.424  -0.241   3.336  0.00  0.00    +0.000 OA
ATOM     47  O   UNL     1       6.609  -0.613   1.183  0.00  0.00    +0.000 OA
ENDBRANCH  44  45
ENDBRANCH  43  44
BRANCH  43  48
ATOM     48  C   UNL     1       4.284  -1.788   3.382  0.00  0.00    +0.000 C 
BRANCH  48  49
ATOM     49  C   UNL     1       4.652  -0.351   3.048  0.00  0.00    +0.000 C 
ATOM     50  O   UNL     1       3.646   0.560   2.630  0.00  0.00    +0.000 OA
ATOM     51  O   UNL     1       5.859   0.034   3.142  0.00  0.00    +0.000 OA
ENDBRANCH  48  49
ENDBRANCH  43  48
ENDBRANCH   1  43
TORSDOF 23
