REMARK  Name = 
REMARK  10 active torsions:
REMARK  status: ('A' for Active; 'I' for Inactive)
REMARK    1  A    between atoms: C_2  and  C_3
REMARK    2  A    between atoms: C_3  and  O_4
REMARK    3  A    between atoms: C_3  and  C_5
REMARK    4  A    between atoms: C_5  and  N_6
REMARK    5  A    between atoms: N_9  and  C_10
REMARK    6  A    between atoms: C_10  and  C_11
REMARK    7  A    between atoms: N_16  and  C_17
REMARK    8  A    between atoms: C_17  and  C_18
REMARK    9  A    between atoms: N_23  and  C_24
REMARK   10  A    between atoms: C_24  and  C_25
REMARK                            x       y       z     vdW  Elec       q    Type
REMARK                         _______ _______ _______ _____ _____    ______ ____
ROOT
ATOM      1 GD   UNL     1       1.055  -0.041   0.073  0.00  0.00    +0.000 Gd
ENDROOT
TORSDOF 0
REMARK  Name = 
REMARK  10 active torsions:
REMARK  status: ('A' for Active; 'I' for Inactive)
REMARK    1  A    between atoms: C_2  and  C_3
REMARK    2  A    between atoms: C_3  and  O_4
REMARK    3  A    between atoms: C_3  and  C_5
REMARK    4  A    between atoms: C_5  and  N_6
REMARK    5  A    between atoms: N_9  and  C_10
REMARK    6  A    between atoms: C_10  and  C_11
REMARK    7  A    between atoms: N_16  and  C_17
REMARK    8  A    between atoms: C_17  and  C_18
REMARK    9  A    between atoms: N_23  and  C_24
REMARK   10  A    between atoms: C_24  and  C_25
REMARK                            x       y       z     vdW  Elec       q    Type
REMARK                         _______ _______ _______ _____ _____    ______ ____
ROOT
ATOM      1  N   UNL     1      -1.452   1.375  -0.245  0.00  0.00    +0.000 NA
ATOM      2  C   UNL     1      -2.669   2.044  -0.718  0.00  0.00    +0.000 C 
ATOM      3  C   UNL     1      -2.918   3.357  -0.001  0.00  0.00    +0.000 C 
ATOM      4  N   UNL     1      -2.262   4.480  -0.685  0.00  0.00    +0.000 NA
ATOM      5  C   UNL     1      -1.922   5.571   0.220  0.00  0.00    +0.000 C 
ATOM      6  C   UNL     1      -0.722   5.283   1.091  0.00  0.00    +0.000 C 
ATOM      7  N   UNL     1      -1.006   4.524   2.317  0.00  0.00    +0.000 NA
ATOM      8  C   UNL     1       0.210   3.855   2.791  0.00  0.00    +0.000 C 
ATOM      9  C   UNL     1       0.460   2.542   2.073  0.00  0.00    +0.000 C 
ATOM     10  N   UNL     1      -0.196   1.419   2.757  0.00  0.00    +0.000 NA
ATOM     11  C   UNL     1      -0.536   0.328   1.852  0.00  0.00    +0.000 C 
ATOM     12  C   UNL     1      -1.736   0.616   0.981  0.00  0.00    +0.000 C 
ENDROOT
BRANCH   1  13
ATOM     13  C   UNL     1      -0.962   0.457  -1.283  0.00  0.00    +0.000 C 
BRANCH  13  15
ATOM     14  C   UNL     1       1.065   0.002   0.076  0.00  0.00    +0.000 C 
ATOM     15  C   UNL     1       0.558   0.457  -1.283  0.00  0.00    +0.000 C 
BRANCH  15  16
ATOM     16  O   UNL     1       1.031  -0.430  -2.285  0.00  0.00    +0.000 OA
ATOM     17  H   UNL     1       2.031  -0.430  -2.285  0.00  0.00    +0.000 HD
ENDBRANCH  15  16
ENDBRANCH  13  15
ENDBRANCH   1  13
BRANCH   4  18
ATOM     18  C   UNL     1      -1.027   3.989  -1.314  0.00  0.00    +0.000 C 
BRANCH  18  19
ATOM     19  C   UNL     1      -0.104   3.424  -0.247  0.00  0.00    +0.000 C 
ATOM     20  O   UNL     1       0.298   2.063  -0.304  0.00  0.00    +0.000 OA
ATOM     21  O   UNL     1       0.307   4.169   0.697  0.00  0.00    +0.000 OA
ENDBRANCH  18  19
ENDBRANCH   4  18
BRANCH   7  22
ATOM     22  C   UNL     1      -1.491   5.443   3.356  0.00  0.00    +0.000 C 
BRANCH  22  23
ATOM     23  C   UNL     1      -0.427   6.491   3.642  0.00  0.00    +0.000 C 
ATOM     24  O   UNL     1      -0.716   7.868   3.444  0.00  0.00    +0.000 OA
ATOM     25  O   UNL     1       0.720   6.136   4.057  0.00  0.00    +0.000 OA
ENDBRANCH  22  23
ENDBRANCH   7  22
BRANCH  10  26
ATOM     26  C   UNL     1       0.712   0.905   3.792  0.00  0.00    +0.000 C 
BRANCH  26  27
ATOM     27  C   UNL     1       2.004   0.433   3.145  0.00  0.00    +0.000 C 
ATOM     28  O   UNL     1       3.241   1.025   3.513  0.00  0.00    +0.000 OA
ATOM     29  O   UNL     1       1.977  -0.492   2.273  0.00  0.00    +0.000 OA
ENDBRANCH  26  27
ENDBRANCH  10  26
TORSDOF 9
