REMARK  Name = 
REMARK  24 active torsions:
REMARK  status: ('A' for Active; 'I' for Inactive)
REMARK    1  A    between atoms: C_2  and  O_3
REMARK    2  A    between atoms: O_3  and  C_4
REMARK    3  A    between atoms: C_4  and  C_5
REMARK    4  A    between atoms: C_5  and  N_6
REMARK    5  A    between atoms: C_7  and  C_9
REMARK    6  A    between atoms: C_9  and  N_10
REMARK    7  A    between atoms: N_10  and  C_11
REMARK    8  A    between atoms: N_10  and  C_33
REMARK    9  A    between atoms: C_11  and  C_12
REMARK   10  A    between atoms: C_12  and  N_13
REMARK   11  A    between atoms: N_13  and  C_14
REMARK   12  A    between atoms: N_13  and  C_29
REMARK   13  A    between atoms: C_14  and  C_15
REMARK   14  A    between atoms: C_15  and  N_16
REMARK   15  A    between atoms: N_16  and  C_17
REMARK   16  A    between atoms: N_16  and  C_21
REMARK   17  A    between atoms: C_17  and  C_18
REMARK   18  A    between atoms: C_21  and  C_22
REMARK   19  A    between atoms: N_24  and  C_25
REMARK   20  A    between atoms: C_25  and  C_26
REMARK   21  A    between atoms: C_26  and  O_27
REMARK   22  A    between atoms: O_27  and  C_28
REMARK   23  A    between atoms: C_29  and  C_30
REMARK   24  A    between atoms: C_33  and  C_34
REMARK                            x       y       z     vdW  Elec       q    Type
REMARK                         _______ _______ _______ _____ _____    ______ ____
ROOT
ATOM      1 GD   UNL     1       0.951  -0.054   0.068  0.00  0.00    +0.000 Gd
ENDROOT
TORSDOF 0
REMARK  Name = 
REMARK  24 active torsions:
REMARK  status: ('A' for Active; 'I' for Inactive)
REMARK    1  A    between atoms: C_2  and  O_3
REMARK    2  A    between atoms: O_3  and  C_4
REMARK    3  A    between atoms: C_4  and  C_5
REMARK    4  A    between atoms: C_5  and  N_6
REMARK    5  A    between atoms: C_7  and  C_9
REMARK    6  A    between atoms: C_9  and  N_10
REMARK    7  A    between atoms: N_10  and  C_11
REMARK    8  A    between atoms: N_10  and  C_33
REMARK    9  A    between atoms: C_11  and  C_12
REMARK   10  A    between atoms: C_12  and  N_13
REMARK   11  A    between atoms: N_13  and  C_14
REMARK   12  A    between atoms: N_13  and  C_29
REMARK   13  A    between atoms: C_14  and  C_15
REMARK   14  A    between atoms: C_15  and  N_16
REMARK   15  A    between atoms: N_16  and  C_17
REMARK   16  A    between atoms: N_16  and  C_21
REMARK   17  A    between atoms: C_17  and  C_18
REMARK   18  A    between atoms: C_21  and  C_22
REMARK   19  A    between atoms: N_24  and  C_25
REMARK   20  A    between atoms: C_25  and  C_26
REMARK   21  A    between atoms: C_26  and  O_27
REMARK   22  A    between atoms: O_27  and  C_28
REMARK   23  A    between atoms: C_29  and  C_30
REMARK   24  A    between atoms: C_33  and  C_34
REMARK                            x       y       z     vdW  Elec       q    Type
REMARK                         _______ _______ _______ _____ _____    ______ ____
ROOT
ATOM      1  N   UNL     1       5.306  -1.685   5.410  0.00  0.00    +0.000 NA
ENDROOT
BRANCH   1   2
ATOM      2  C   UNL     1       4.081  -1.622   6.220  0.00  0.00    +0.000 C 
BRANCH   2   3
ATOM      3  C   UNL     1       3.207  -0.479   5.729  0.00  0.00    +0.000 C 
BRANCH   3   4
ATOM      4  N   UNL     1       2.852  -0.704   4.320  0.00  0.00    +0.000 NA
BRANCH   4   5
ATOM      5  C   UNL     1       2.117  -1.971   4.197  0.00  0.00    +0.000 C 
BRANCH   5   7
ATOM      6  N   UNL     1       0.904  -1.232   2.031  0.00  0.00    +0.000 N 
ATOM      7  C   UNL     1       1.749  -2.204   2.740  0.00  0.00    +0.000 C 
ATOM      8  O   UNL     1       2.173  -3.238   2.135  0.00  0.00    +0.000 OA
ATOM      9  H   UNL     1       0.658  -1.388   1.054  0.00  0.00    +0.000 HD
BRANCH   6  10
ATOM     10  C   UNL     1       0.414  -0.036   2.730  0.00  0.00    +0.000 C 
BRANCH  10  11
ATOM     11  C   UNL     1       0.921   1.209   2.021  0.00  0.00    +0.000 C 
BRANCH  11  13
ATOM     12  C   UNL     1       0.921   0.061   0.006  0.00  0.00    +0.000 C 
ATOM     13  O   UNL     1       0.448   1.217   0.682  0.00  0.00    +0.000 OA
ENDBRANCH  11  13
ENDBRANCH  10  11
ENDBRANCH   6  10
ENDBRANCH   5   7
ENDBRANCH   4   5
BRANCH   4  14
ATOM     14  C   UNL     1       4.077  -0.767   3.510  0.00  0.00    +0.000 C 
BRANCH  14  15
ATOM     15  C   UNL     1       4.950  -1.910   4.001  0.00  0.00    +0.000 C 
ATOM     16  O   UNL     1       5.294  -2.970   3.121  0.00  0.00    +0.000 OA
ATOM     17  O   UNL     1       5.374  -1.916   5.199  0.00  0.00    +0.000 OA
ENDBRANCH  14  15
ENDBRANCH   4  14
ENDBRANCH   3   4
ENDBRANCH   2   3
ENDBRANCH   1   2
BRANCH   1  18
ATOM     18  C   UNL     1       6.151  -2.790   5.884  0.00  0.00    +0.000 C 
BRANCH  18  19
ATOM     19  C   UNL     1       5.391  -4.100   5.757  0.00  0.00    +0.000 C 
BRANCH  19  20
ATOM     20  N   UNL     1       5.036  -4.325   4.348  0.00  0.00    +0.000 NA
BRANCH  20  21
ATOM     21  C   UNL     1       4.301  -5.592   4.224  0.00  0.00    +0.000 C 
BRANCH  21  22
ATOM     22  C   UNL     1       3.034  -5.527   5.062  0.00  0.00    +0.000 C 
ATOM     23  O   UNL     1       1.765  -5.677   4.443  0.00  0.00    +0.000 OA
ATOM     24  O   UNL     1       3.111  -5.338   6.316  0.00  0.00    +0.000 OA
ENDBRANCH  21  22
ENDBRANCH  20  21
BRANCH  20  25
ATOM     25  C   UNL     1       4.190  -3.220   3.873  0.00  0.00    +0.000 C 
BRANCH  25  26
ATOM     26  C   UNL     1       2.924  -3.155   4.711  0.00  0.00    +0.000 C 
ATOM     27  O   UNL     1       2.654  -2.105   5.374  0.00  0.00    +0.000 OA
ATOM     28  N   UNL     1       2.011  -4.306   4.754  0.00  0.00    +0.000 N 
ATOM     29  H   UNL     1       1.161  -4.263   5.316  0.00  0.00    +0.000 HD
BRANCH  28  30
ATOM     30  C   UNL     1       2.324  -5.521   3.987  0.00  0.00    +0.000 C 
BRANCH  30  31
ATOM     31  C   UNL     1       2.450  -6.701   4.937  0.00  0.00    +0.000 C 
BRANCH  31  32
ATOM     32  O   UNL     1       1.226  -6.882   5.633  0.00  0.00    +0.000 OA
ATOM     33  C   UNL     1       0.924  -5.709   6.373  0.00  0.00    +0.000 C 
ENDBRANCH  31  32
ENDBRANCH  30  31
ENDBRANCH  28  30
ENDBRANCH  25  26
ENDBRANCH  20  25
ENDBRANCH  19  20
ENDBRANCH  18  19
ENDBRANCH   1  18
BRANCH   1  34
ATOM     34  C   UNL     1       4.950  -1.910   4.001  0.00  0.00    +0.000 C 
BRANCH  34  35
ATOM     35  C   UNL     1       4.190  -3.220   3.873  0.00  0.00    +0.000 C 
ATOM     36  O   UNL     1       2.868  -3.226   3.356  0.00  0.00    +0.000 OA
ATOM     37  O   UNL     1       4.738  -4.310   4.229  0.00  0.00    +0.000 OA
ENDBRANCH  34  35
ENDBRANCH   1  34
TORSDOF 22
