REMARK  Name = 
REMARK  46 active torsions:
REMARK  status: ('A' for Active; 'I' for Inactive)
REMARK    1  A    between atoms: C_2  and  N_3
REMARK    2  A    between atoms: N_3  and  C_4
REMARK    3  A    between atoms: C_4  and  C_5
REMARK    4  A    between atoms: C_5  and  O_6
REMARK    5  A    between atoms: C_5  and  C_7
REMARK    6  A    between atoms: C_7  and  O_8
REMARK    7  A    between atoms: C_7  and  C_9
REMARK    8  A    between atoms: C_9  and  O_10
REMARK    9  A    between atoms: C_9  and  C_11
REMARK   10  A    between atoms: C_11  and  O_12
REMARK   11  A    between atoms: C_11  and  C_13
REMARK   12  A    between atoms: C_13  and  O_14
REMARK   13  A    between atoms: C_15  and  N_16
REMARK   14  A    between atoms: N_16  and  C_17
REMARK   15  A    between atoms: C_17  and  C_18
REMARK   16  A    between atoms: C_18  and  O_19
REMARK   17  A    between atoms: C_18  and  C_20
REMARK   18  A    between atoms: C_20  and  O_21
REMARK   19  A    between atoms: C_20  and  C_22
REMARK   20  A    between atoms: C_22  and  O_23
REMARK   21  A    between atoms: C_22  and  C_24
REMARK   22  A    between atoms: C_24  and  O_25
REMARK   23  A    between atoms: C_24  and  C_26
REMARK   24  A    between atoms: C_26  and  O_27
REMARK   25  A    between atoms: O_28  and  C_29
REMARK   26  A    between atoms: C_29  and  C_31
REMARK   27  A    between atoms: C_31  and  N_32
REMARK   28  A    between atoms: N_32  and  C_33
REMARK   29  A    between atoms: N_32  and  C_60
REMARK   30  A    between atoms: C_33  and  C_34
REMARK   31  A    between atoms: C_34  and  N_35
REMARK   32  A    between atoms: N_35  and  C_36
REMARK   33  A    between atoms: N_35  and  C_56
REMARK   34  A    between atoms: C_36  and  C_37
REMARK   35  A    between atoms: C_37  and  N_38
REMARK   36  A    between atoms: N_38  and  C_39
REMARK   37  A    between atoms: N_38  and  C_43
REMARK   38  A    between atoms: C_39  and  C_40
REMARK   39  A    between atoms: C_40  and  O_41
REMARK   40  A    between atoms: C_43  and  C_44
REMARK   41  A    between atoms: C_43  and  C_53
REMARK   42  A    between atoms: C_44  and  O_45
REMARK   43  A    between atoms: O_45  and  C_46
REMARK   44  A    between atoms: C_46  and  C_47
REMARK   45  A    between atoms: C_56  and  C_57
REMARK   46  A    between atoms: C_60  and  C_61
REMARK                            x       y       z     vdW  Elec       q    Type
REMARK                         _______ _______ _______ _____ _____    ______ ____
ROOT
ATOM      1 GD   UNL     1       0.933   0.074   0.002  0.00  0.00    +0.000 Gd
ENDROOT
TORSDOF 0
REMARK  Name = 
REMARK  46 active torsions:
REMARK  status: ('A' for Active; 'I' for Inactive)
REMARK    1  A    between atoms: C_2  and  N_3
REMARK    2  A    between atoms: N_3  and  C_4
REMARK    3  A    between atoms: C_4  and  C_5
REMARK    4  A    between atoms: C_5  and  O_6
REMARK    5  A    between atoms: C_5  and  C_7
REMARK    6  A    between atoms: C_7  and  O_8
REMARK    7  A    between atoms: C_7  and  C_9
REMARK    8  A    between atoms: C_9  and  O_10
REMARK    9  A    between atoms: C_9  and  C_11
REMARK   10  A    between atoms: C_11  and  O_12
REMARK   11  A    between atoms: C_11  and  C_13
REMARK   12  A    between atoms: C_13  and  O_14
REMARK   13  A    between atoms: C_15  and  N_16
REMARK   14  A    between atoms: N_16  and  C_17
REMARK   15  A    between atoms: C_17  and  C_18
REMARK   16  A    between atoms: C_18  and  O_19
REMARK   17  A    between atoms: C_18  and  C_20
REMARK   18  A    between atoms: C_20  and  O_21
REMARK   19  A    between atoms: C_20  and  C_22
REMARK   20  A    between atoms: C_22  and  O_23
REMARK   21  A    between atoms: C_22  and  C_24
REMARK   22  A    between atoms: C_24  and  O_25
REMARK   23  A    between atoms: C_24  and  C_26
REMARK   24  A    between atoms: C_26  and  O_27
REMARK   25  A    between atoms: O_28  and  C_29
REMARK   26  A    between atoms: C_29  and  C_31
REMARK   27  A    between atoms: C_31  and  N_32
REMARK   28  A    between atoms: N_32  and  C_33
REMARK   29  A    between atoms: N_32  and  C_60
REMARK   30  A    between atoms: C_33  and  C_34
REMARK   31  A    between atoms: C_34  and  N_35
REMARK   32  A    between atoms: N_35  and  C_36
REMARK   33  A    between atoms: N_35  and  C_56
REMARK   34  A    between atoms: C_36  and  C_37
REMARK   35  A    between atoms: C_37  and  N_38
REMARK   36  A    between atoms: N_38  and  C_39
REMARK   37  A    between atoms: N_38  and  C_43
REMARK   38  A    between atoms: C_39  and  C_40
REMARK   39  A    between atoms: C_40  and  O_41
REMARK   40  A    between atoms: C_43  and  C_44
REMARK   41  A    between atoms: C_43  and  C_53
REMARK   42  A    between atoms: C_44  and  O_45
REMARK   43  A    between atoms: O_45  and  C_46
REMARK   44  A    between atoms: C_46  and  C_47
REMARK   45  A    between atoms: C_56  and  C_57
REMARK   46  A    between atoms: C_60  and  C_61
REMARK                            x       y       z     vdW  Elec       q    Type
REMARK                         _______ _______ _______ _____ _____    ______ ____
ROOT
ATOM      1  C   UNL     1      -5.542  -1.086   2.402  0.00  0.00    +0.000 C 
ENDROOT
BRANCH   1   2
ATOM      2  O   UNL     1      -6.591  -1.071   3.359  0.00  0.00    +0.000 OA
ATOM      3  H   UNL     1      -6.646  -1.963   3.808  0.00  0.00    +0.000 HD
ENDBRANCH   1   2
BRANCH   1   4
ATOM      4  C   UNL     1      -4.225  -1.384   3.098  0.00  0.00    +0.000 C 
BRANCH   4   5
ATOM      5  O   UNL     1      -4.302  -2.651   3.736  0.00  0.00    +0.000 OA
ATOM      6  H   UNL     1      -3.523  -2.751   4.354  0.00  0.00    +0.000 HD
ENDBRANCH   4   5
BRANCH   4   7
ATOM      7  C   UNL     1      -3.102  -1.400   2.074  0.00  0.00    +0.000 C 
BRANCH   7   9
ATOM      8  C   UNL     1      -4.228  -2.042   0.053  0.00  0.00    +0.000 C 
ATOM      9  N   UNL     1      -3.183  -2.418   1.016  0.00  0.00    +0.000 NA
ATOM     10  H   UNL     1      -3.411  -3.322   1.430  0.00  0.00    +0.000 HD
ENDBRANCH   7   9
ENDBRANCH   4   7
ENDBRANCH   1   4
BRANCH   1  11
ATOM     11  C   UNL     1      -5.550   0.064   1.407  0.00  0.00    +0.000 C 
BRANCH  11  12
ATOM     12  O   UNL     1      -4.583  -0.179   0.396  0.00  0.00    +0.000 OA
ATOM     13  H   UNL     1      -3.708  -0.574   0.677  0.00  0.00    +0.000 HD
ENDBRANCH  11  12
BRANCH  11  14
ATOM     14  C   UNL     1      -5.043   1.316   2.104  0.00  0.00    +0.000 C 
BRANCH  14  15
ATOM     15  O   UNL     1      -3.623   1.316   2.104  0.00  0.00    +0.000 OA
ATOM     16  H   UNL     1      -3.366   0.592   1.464  0.00  0.00    +0.000 HD
ENDBRANCH  14  15
BRANCH  14  17
ATOM     17  C   UNL     1      -5.550   1.338   3.537  0.00  0.00    +0.000 C 
BRANCH  17  18
ATOM     18  O   UNL     1      -5.076   2.508   4.188  0.00  0.00    +0.000 OA
ATOM     19  H   UNL     1      -4.076   2.508   4.188  0.00  0.00    +0.000 HD
ENDBRANCH  17  18
ENDBRANCH  14  17
ENDBRANCH  11  14
ENDBRANCH   1  11
TORSDOF 11
REMARK  Name = 
REMARK  46 active torsions:
REMARK  status: ('A' for Active; 'I' for Inactive)
REMARK    1  A    between atoms: C_2  and  N_3
REMARK    2  A    between atoms: N_3  and  C_4
REMARK    3  A    between atoms: C_4  and  C_5
REMARK    4  A    between atoms: C_5  and  O_6
REMARK    5  A    between atoms: C_5  and  C_7
REMARK    6  A    between atoms: C_7  and  O_8
REMARK    7  A    between atoms: C_7  and  C_9
REMARK    8  A    between atoms: C_9  and  O_10
REMARK    9  A    between atoms: C_9  and  C_11
REMARK   10  A    between atoms: C_11  and  O_12
REMARK   11  A    between atoms: C_11  and  C_13
REMARK   12  A    between atoms: C_13  and  O_14
REMARK   13  A    between atoms: C_15  and  N_16
REMARK   14  A    between atoms: N_16  and  C_17
REMARK   15  A    between atoms: C_17  and  C_18
REMARK   16  A    between atoms: C_18  and  O_19
REMARK   17  A    between atoms: C_18  and  C_20
REMARK   18  A    between atoms: C_20  and  O_21
REMARK   19  A    between atoms: C_20  and  C_22
REMARK   20  A    between atoms: C_22  and  O_23
REMARK   21  A    between atoms: C_22  and  C_24
REMARK   22  A    between atoms: C_24  and  O_25
REMARK   23  A    between atoms: C_24  and  C_26
REMARK   24  A    between atoms: C_26  and  O_27
REMARK   25  A    between atoms: O_28  and  C_29
REMARK   26  A    between atoms: C_29  and  C_31
REMARK   27  A    between atoms: C_31  and  N_32
REMARK   28  A    between atoms: N_32  and  C_33
REMARK   29  A    between atoms: N_32  and  C_60
REMARK   30  A    between atoms: C_33  and  C_34
REMARK   31  A    between atoms: C_34  and  N_35
REMARK   32  A    between atoms: N_35  and  C_36
REMARK   33  A    between atoms: N_35  and  C_56
REMARK   34  A    between atoms: C_36  and  C_37
REMARK   35  A    between atoms: C_37  and  N_38
REMARK   36  A    between atoms: N_38  and  C_39
REMARK   37  A    between atoms: N_38  and  C_43
REMARK   38  A    between atoms: C_39  and  C_40
REMARK   39  A    between atoms: C_40  and  O_41
REMARK   40  A    between atoms: C_43  and  C_44
REMARK   41  A    between atoms: C_43  and  C_53
REMARK   42  A    between atoms: C_44  and  O_45
REMARK   43  A    between atoms: O_45  and  C_46
REMARK   44  A    between atoms: C_46  and  C_47
REMARK   45  A    between atoms: C_56  and  C_57
REMARK   46  A    between atoms: C_60  and  C_61
REMARK                            x       y       z     vdW  Elec       q    Type
REMARK                         _______ _______ _______ _____ _____    ______ ____
ROOT
ATOM      1  C   UNL     1      -6.150   1.708  -1.974  0.00  0.00    +0.000 C 
ENDROOT
BRANCH   1   2
ATOM      2  O   UNL     1      -7.513   1.774  -1.583  0.00  0.00    +0.000 OA
ATOM      3  H   UNL     1      -7.921   2.615  -1.939  0.00  0.00    +0.000 HD
ENDBRANCH   1   2
BRANCH   1   4
ATOM      4  C   UNL     1      -6.056   1.715  -3.491  0.00  0.00    +0.000 C 
BRANCH   4   5
ATOM      5  O   UNL     1      -6.635   2.909  -3.995  0.00  0.00    +0.000 OA
ATOM      6  H   UNL     1      -7.617   2.805  -4.157  0.00  0.00    +0.000 HD
ENDBRANCH   4   5
BRANCH   4   7
ATOM      7  C   UNL     1      -4.596   1.644  -3.908  0.00  0.00    +0.000 C 
BRANCH   7   9
ATOM      8  C   UNL     1      -4.376  -0.506  -2.865  0.00  0.00    +0.000 C 
ATOM      9  N   UNL     1      -3.845   0.864  -2.914  0.00  0.00    +0.000 NA
ATOM     10  H   UNL     1      -3.942   1.300  -1.997  0.00  0.00    +0.000 HD
ENDBRANCH   7   9
ENDBRANCH   4   7
ENDBRANCH   1   4
BRANCH   1  11
ATOM     11  C   UNL     1      -5.536   0.483  -1.314  0.00  0.00    +0.000 C 
BRANCH  11  12
ATOM     12  O   UNL     1      -4.334   0.853  -0.656  0.00  0.00    +0.000 OA
ATOM     13  H   UNL     1      -4.721   1.770  -0.752  0.00  0.00    +0.000 HD
ENDBRANCH  11  12
BRANCH  11  14
ATOM     14  C   UNL     1      -5.029  -0.524  -2.334  0.00  0.00    +0.000 C 
BRANCH  14  15
ATOM     15  O   UNL     1      -3.609  -0.524  -2.334  0.00  0.00    +0.000 OA
ATOM     16  H   UNL     1      -2.839  -0.943  -1.854  0.00  0.00    +0.000 HD
ENDBRANCH  14  15
BRANCH  14  17
ATOM     17  C   UNL     1      -5.536  -0.145  -3.716  0.00  0.00    +0.000 C 
BRANCH  17  18
ATOM     18  O   UNL     1      -5.063  -1.086  -4.668  0.00  0.00    +0.000 OA
ATOM     19  H   UNL     1      -4.063  -1.086  -4.668  0.00  0.00    +0.000 HD
ENDBRANCH  17  18
ENDBRANCH  14  17
ENDBRANCH  11  14
ENDBRANCH   1  11
TORSDOF 11
REMARK  Name = 
REMARK  46 active torsions:
REMARK  status: ('A' for Active; 'I' for Inactive)
REMARK    1  A    between atoms: C_2  and  N_3
REMARK    2  A    between atoms: N_3  and  C_4
REMARK    3  A    between atoms: C_4  and  C_5
REMARK    4  A    between atoms: C_5  and  O_6
REMARK    5  A    between atoms: C_5  and  C_7
REMARK    6  A    between atoms: C_7  and  O_8
REMARK    7  A    between atoms: C_7  and  C_9
REMARK    8  A    between atoms: C_9  and  O_10
REMARK    9  A    between atoms: C_9  and  C_11
REMARK   10  A    between atoms: C_11  and  O_12
REMARK   11  A    between atoms: C_11  and  C_13
REMARK   12  A    between atoms: C_13  and  O_14
REMARK   13  A    between atoms: C_15  and  N_16
REMARK   14  A    between atoms: N_16  and  C_17
REMARK   15  A    between atoms: C_17  and  C_18
REMARK   16  A    between atoms: C_18  and  O_19
REMARK   17  A    between atoms: C_18  and  C_20
REMARK   18  A    between atoms: C_20  and  O_21
REMARK   19  A    between atoms: C_20  and  C_22
REMARK   20  A    between atoms: C_22  and  O_23
REMARK   21  A    between atoms: C_22  and  C_24
REMARK   22  A    between atoms: C_24  and  O_25
REMARK   23  A    between atoms: C_24  and  C_26
REMARK   24  A    between atoms: C_26  and  O_27
REMARK   25  A    between atoms: O_28  and  C_29
REMARK   26  A    between atoms: C_29  and  C_31
REMARK   27  A    between atoms: C_31  and  N_32
REMARK   28  A    between atoms: N_32  and  C_33
REMARK   29  A    between atoms: N_32  and  C_60
REMARK   30  A    between atoms: C_33  and  C_34
REMARK   31  A    between atoms: C_34  and  N_35
REMARK   32  A    between atoms: N_35  and  C_36
REMARK   33  A    between atoms: N_35  and  C_56
REMARK   34  A    between atoms: C_36  and  C_37
REMARK   35  A    between atoms: C_37  and  N_38
REMARK   36  A    between atoms: N_38  and  C_39
REMARK   37  A    between atoms: N_38  and  C_43
REMARK   38  A    between atoms: C_39  and  C_40
REMARK   39  A    between atoms: C_40  and  O_41
REMARK   40  A    between atoms: C_43  and  C_44
REMARK   41  A    between atoms: C_43  and  C_53
REMARK   42  A    between atoms: C_44  and  O_45
REMARK   43  A    between atoms: O_45  and  C_46
REMARK   44  A    between atoms: C_46  and  C_47
REMARK   45  A    between atoms: C_56  and  C_57
REMARK   46  A    between atoms: C_60  and  C_61
REMARK                            x       y       z     vdW  Elec       q    Type
REMARK                         _______ _______ _______ _____ _____    ______ ____
ROOT
ATOM      1  C   UNL     1      -3.202   4.834   0.267  0.00  0.00    +0.000 C 
ENDROOT
BRANCH   1   2
ATOM      2  C   UNL     1      -3.709   4.486  -1.123  0.00  0.00    +0.000 C 
BRANCH   2   3
ATOM      3  N   UNL     1      -3.219   3.153  -1.503  0.00  0.00    +0.000 NA
BRANCH   3   4
ATOM      4  C   UNL     1      -3.709   2.157  -0.540  0.00  0.00    +0.000 C 
BRANCH   4   5
ATOM      5  C   UNL     1      -3.202   0.779  -0.933  0.00  0.00    +0.000 C 
BRANCH   5   6
ATOM      6  N   UNL     1      -1.732   0.779  -0.933  0.00  0.00    +0.000 NA
BRANCH   6   7
ATOM      7  C   UNL     1      -1.242   1.116   0.411  0.00  0.00    +0.000 C 
BRANCH   7   8
ATOM      8  C   UNL     1       0.278   1.116   0.411  0.00  0.00    +0.000 C 
ATOM      9  O   UNL     1       0.913   2.175   0.714  0.00  0.00    +0.000 OA
BRANCH   8  10
ATOM     10  O   UNL     1       0.988  -0.066   0.074  0.00  0.00    +0.000 OA
ATOM     11  H   UNL     1       1.988  -0.066   0.074  0.00  0.00    +0.000 HD
ENDBRANCH   8  10
ENDBRANCH   7   8
ENDBRANCH   6   7
BRANCH   6  12
ATOM     12  C   UNL     1      -1.242   1.775  -1.897  0.00  0.00    +0.000 C 
BRANCH  12  13
ATOM     13  C   UNL     1      -1.749   3.153  -1.503  0.00  0.00    +0.000 C 
ATOM     14  O   UNL     1      -0.826   4.191  -1.207  0.00  0.00    +0.000 OA
ATOM     15  O   UNL     1      -2.998   3.377  -1.440  0.00  0.00    +0.000 OA
ENDBRANCH  12  13
ENDBRANCH   6  12
ENDBRANCH   5   6
ENDBRANCH   4   5
ENDBRANCH   3   4
BRANCH   3  16
ATOM     16  C   UNL     1      -1.749   3.153  -1.503  0.00  0.00    +0.000 C 
BRANCH  16  17
ATOM     17  C   UNL     1      -1.242   3.502  -0.113  0.00  0.00    +0.000 C 
ATOM     18  O   UNL     1      -0.426   2.581   0.596  0.00  0.00    +0.000 OA
ATOM     19  O   UNL     1      -1.549   4.616   0.414  0.00  0.00    +0.000 OA
ENDBRANCH  16  17
ENDBRANCH   3  16
ENDBRANCH   2   3
ENDBRANCH   1   2
BRANCH   1  20
ATOM     20  N   UNL     1      -1.732   4.834   0.267  0.00  0.00    +0.000 NA
BRANCH  20  21
ATOM     21  C   UNL     1      -1.242   5.171   1.611  0.00  0.00    +0.000 C 
BRANCH  21  22
ATOM     22  C   UNL     1      -1.749   4.142   2.608  0.00  0.00    +0.000 C 
ATOM     23  O   UNL     1      -2.998   3.975   2.770  0.00  0.00    +0.000 OA
BRANCH  22  24
ATOM     24  O   UNL     1      -0.826   3.366   3.359  0.00  0.00    +0.000 OA
ATOM     25  H   UNL     1       0.157   3.497   3.232  0.00  0.00    +0.000 HD
ENDBRANCH  22  24
ENDBRANCH  21  22
ENDBRANCH  20  21
BRANCH  20  26
ATOM     26  C   UNL     1      -1.242   3.502  -0.113  0.00  0.00    +0.000 C 
BRANCH  26  27
ATOM     27  C   UNL     1      -1.749   3.153  -1.503  0.00  0.00    +0.000 C 
ATOM     28  O   UNL     1      -0.826   2.891  -2.550  0.00  0.00    +0.000 OA
ATOM     29  O   UNL     1      -2.998   3.097  -1.729  0.00  0.00    +0.000 OA
ENDBRANCH  26  27
BRANCH  26  30
ATOM     30  C   UNL     1      -1.749   2.472   0.883  0.00  0.00    +0.000 C 
BRANCH  30  31
ATOM     31  O   UNL     1      -3.169   2.472   0.883  0.00  0.00    +0.000 OA
BRANCH  31  32
ATOM     32  C   UNL     1      -3.642   3.759   1.251  0.00  0.00    +0.000 C 
BRANCH  32  33
ATOM     33  C   UNL     1      -3.136   4.108   2.641  0.00  0.00    +0.000 A 
ATOM     34  C   UNL     1      -2.765   3.096   3.512  0.00  0.00    +0.000 A 
ATOM     35  C   UNL     1      -2.671   3.509   4.862  0.00  0.00    +0.000 A 
ATOM     36  C   UNL     1      -2.574   4.765   5.256  0.00  0.00    +0.000 A 
ATOM     37  C   UNL     1      -2.888   5.720   4.329  0.00  0.00    +0.000 A 
ATOM     38  C   UNL     1      -3.122   5.381   3.018  0.00  0.00    +0.000 A 
ENDBRANCH  32  33
ENDBRANCH  31  32
ENDBRANCH  30  31
ENDBRANCH  26  30
ENDBRANCH  20  26
ENDBRANCH   1  20
TORSDOF 22
