REMARK  Name = 
REMARK  13 active torsions:
REMARK  status: ('A' for Active; 'I' for Inactive)
REMARK    1  A    between atoms: O_2  and  C_3
REMARK    2  A    between atoms: C_3  and  C_4
REMARK    3  A    between atoms: C_4  and  O_5
REMARK    4  A    between atoms: C_4  and  C_6
REMARK    5  A    between atoms: C_6  and  C_7
REMARK    6  A    between atoms: C_6  and  N_9
REMARK    7  A    between atoms: C_7  and  O_8
REMARK    8  A    between atoms: N_12  and  C_13
REMARK    9  A    between atoms: C_13  and  C_14
REMARK   10  A    between atoms: N_19  and  C_20
REMARK   11  A    between atoms: C_20  and  C_21
REMARK   12  A    between atoms: N_26  and  C_27
REMARK   13  A    between atoms: C_27  and  C_28
REMARK                            x       y       z     vdW  Elec       q    Type
REMARK                         _______ _______ _______ _____ _____    ______ ____
ROOT
ATOM      1 GD   UNL     1       1.005  -0.055   0.083  0.00  0.00    +0.000 Gd
ENDROOT
TORSDOF 0
REMARK  Name = 
REMARK  13 active torsions:
REMARK  status: ('A' for Active; 'I' for Inactive)
REMARK    1  A    between atoms: O_2  and  C_3
REMARK    2  A    between atoms: C_3  and  C_4
REMARK    3  A    between atoms: C_4  and  O_5
REMARK    4  A    between atoms: C_4  and  C_6
REMARK    5  A    between atoms: C_6  and  C_7
REMARK    6  A    between atoms: C_6  and  N_9
REMARK    7  A    between atoms: C_7  and  O_8
REMARK    8  A    between atoms: N_12  and  C_13
REMARK    9  A    between atoms: C_13  and  C_14
REMARK   10  A    between atoms: N_19  and  C_20
REMARK   11  A    between atoms: C_20  and  C_21
REMARK   12  A    between atoms: N_26  and  C_27
REMARK   13  A    between atoms: C_27  and  C_28
REMARK                            x       y       z     vdW  Elec       q    Type
REMARK                         _______ _______ _______ _____ _____    ______ ____
ROOT
ATOM      1  N   UNL     1       0.960  -4.879   0.445  0.00  0.00    +0.000 NA
ATOM      2  C   UNL     1       0.057  -5.662  -0.407  0.00  0.00    +0.000 C 
ATOM      3  C   UNL     1       0.493  -7.110  -0.527  0.00  0.00    +0.000 C 
ATOM      4  N   UNL     1      -0.095  -7.940   0.534  0.00  0.00    +0.000 NA
ATOM      5  C   UNL     1       0.725  -9.100   0.862  0.00  0.00    +0.000 C 
ATOM      6  C   UNL     1       1.949  -8.763   1.680  0.00  0.00    +0.000 C 
ATOM      7  N   UNL     1       3.116  -8.316   0.905  0.00  0.00    +0.000 NA
ATOM      8  C   UNL     1       4.019  -7.534   1.757  0.00  0.00    +0.000 C 
ATOM      9  C   UNL     1       3.583  -6.086   1.877  0.00  0.00    +0.000 C 
ATOM     10  N   UNL     1       4.171  -5.255   0.817  0.00  0.00    +0.000 NA
ATOM     11  C   UNL     1       3.351  -4.096   0.488  0.00  0.00    +0.000 C 
ATOM     12  C   UNL     1       2.127  -4.433  -0.330  0.00  0.00    +0.000 C 
ENDROOT
BRANCH   1  13
ATOM     13  C   UNL     1       0.470  -3.612   1.005  0.00  0.00    +0.000 C 
BRANCH  13  14
ATOM     14  C   UNL     1       0.976  -2.455   0.159  0.00  0.00    +0.000 C 
BRANCH  14  15
ATOM     15  O   UNL     1       2.396  -2.455   0.159  0.00  0.00    +0.000 OA
ATOM     16  H   UNL     1       2.730  -1.694  -0.398  0.00  0.00    +0.000 HD
ENDBRANCH  14  15
BRANCH  14  17
ATOM     17  C   UNL     1       0.470  -1.144   0.738  0.00  0.00    +0.000 C 
BRANCH  17  18
ATOM     18  O   UNL     1       0.943  -0.063  -0.053  0.00  0.00    +0.000 OA
ATOM     19  H   UNL     1       1.943  -0.063  -0.053  0.00  0.00    +0.000 HD
ENDBRANCH  17  18
ENDBRANCH  14  17
ENDBRANCH  13  14
BRANCH  13  20
ATOM     20  C   UNL     1      -1.050  -3.612   1.005  0.00  0.00    +0.000 C 
BRANCH  20  21
ATOM     21  O   UNL     1      -1.524  -3.756  -0.326  0.00  0.00    +0.000 OA
ATOM     22  H   UNL     1      -1.190  -2.995  -0.883  0.00  0.00    +0.000 HD
ENDBRANCH  20  21
ENDBRANCH  13  20
ENDBRANCH   1  13
BRANCH   4  23
ATOM     23  C   UNL     1      -0.250  -7.118   1.742  0.00  0.00    +0.000 C 
BRANCH  23  24
ATOM     24  C   UNL     1       1.110  -6.602   2.183  0.00  0.00    +0.000 C 
ATOM     25  O   UNL     1       1.350  -5.205   2.256  0.00  0.00    +0.000 OA
ATOM     26  O   UNL     1       2.032  -7.423   2.486  0.00  0.00    +0.000 OA
ENDBRANCH  23  24
ENDBRANCH   4  23
BRANCH   7  27
ATOM     27  C   UNL     1       3.834  -9.490   0.387  0.00  0.00    +0.000 C 
BRANCH  27  28
ATOM     28  C   UNL     1       4.295 -10.356   1.548  0.00  0.00    +0.000 C 
ATOM     29  O   UNL     1       3.846 -11.699   1.654  0.00  0.00    +0.000 OA
ATOM     30  O   UNL     1       5.081  -9.877   2.424  0.00  0.00    +0.000 OA
ENDBRANCH  27  28
ENDBRANCH   7  27
BRANCH  10  31
ATOM     31  C   UNL     1       5.490  -4.786   1.265  0.00  0.00    +0.000 C 
BRANCH  31  32
ATOM     32  C   UNL     1       5.332  -3.968   2.535  0.00  0.00    +0.000 C 
ATOM     33  O   UNL     1       5.982  -4.377   3.730  0.00  0.00    +0.000 OA
ATOM     34  O   UNL     1       4.618  -2.916   2.529  0.00  0.00    +0.000 OA
ENDBRANCH  31  32
ENDBRANCH  10  31
TORSDOF 13
