REMARK  Name = 
REMARK  21 active torsions:
REMARK  status: ('A' for Active; 'I' for Inactive)
REMARK    1  A    between atoms: C_4  and  C_5
REMARK    2  A    between atoms: C_5  and  O_6
REMARK    3  A    between atoms: O_6  and  C_7
REMARK    4  A    between atoms: C_10  and  C_11
REMARK    5  A    between atoms: C_11  and  C_12
REMARK    6  A    between atoms: C_12  and  C_13
REMARK    7  A    between atoms: C_12  and  N_30
REMARK    8  A    between atoms: C_13  and  N_14
REMARK    9  A    between atoms: N_14  and  C_15
REMARK   10  A    between atoms: N_14  and  C_26
REMARK   11  A    between atoms: C_15  and  C_16
REMARK   12  A    between atoms: C_16  and  N_17
REMARK   13  A    between atoms: N_17  and  C_18
REMARK   14  A    between atoms: N_17  and  C_22
REMARK   15  A    between atoms: C_18  and  C_19
REMARK   16  A    between atoms: C_22  and  C_23
REMARK   17  A    between atoms: C_26  and  C_27
REMARK   18  A    between atoms: N_30  and  C_31
REMARK   19  A    between atoms: N_30  and  C_35
REMARK   20  A    between atoms: C_31  and  C_32
REMARK   21  A    between atoms: C_35  and  C_36
REMARK                            x       y       z     vdW  Elec       q    Type
REMARK                         _______ _______ _______ _____ _____    ______ ____
ROOT
ATOM      1 NA   UNL     1       1.025  -0.061   0.075  0.00  0.00    +0.000 Na
ENDROOT
TORSDOF 0
REMARK  Name = 
REMARK  21 active torsions:
REMARK  status: ('A' for Active; 'I' for Inactive)
REMARK    1  A    between atoms: C_4  and  C_5
REMARK    2  A    between atoms: C_5  and  O_6
REMARK    3  A    between atoms: O_6  and  C_7
REMARK    4  A    between atoms: C_10  and  C_11
REMARK    5  A    between atoms: C_11  and  C_12
REMARK    6  A    between atoms: C_12  and  C_13
REMARK    7  A    between atoms: C_12  and  N_30
REMARK    8  A    between atoms: C_13  and  N_14
REMARK    9  A    between atoms: N_14  and  C_15
REMARK   10  A    between atoms: N_14  and  C_26
REMARK   11  A    between atoms: C_15  and  C_16
REMARK   12  A    between atoms: C_16  and  N_17
REMARK   13  A    between atoms: N_17  and  C_18
REMARK   14  A    between atoms: N_17  and  C_22
REMARK   15  A    between atoms: C_18  and  C_19
REMARK   16  A    between atoms: C_22  and  C_23
REMARK   17  A    between atoms: C_26  and  C_27
REMARK   18  A    between atoms: N_30  and  C_31
REMARK   19  A    between atoms: N_30  and  C_35
REMARK   20  A    between atoms: C_31  and  C_32
REMARK   21  A    between atoms: C_35  and  C_36
REMARK                            x       y       z     vdW  Elec       q    Type
REMARK                         _______ _______ _______ _____ _____    ______ ____
ROOT
ATOM      1 NA   UNL     1       0.911   0.039  -0.025  0.00  0.00    +0.000 Na
ENDROOT
TORSDOF 0
REMARK  Name = 
REMARK  21 active torsions:
REMARK  status: ('A' for Active; 'I' for Inactive)
REMARK    1  A    between atoms: C_4  and  C_5
REMARK    2  A    between atoms: C_5  and  O_6
REMARK    3  A    between atoms: O_6  and  C_7
REMARK    4  A    between atoms: C_10  and  C_11
REMARK    5  A    between atoms: C_11  and  C_12
REMARK    6  A    between atoms: C_12  and  C_13
REMARK    7  A    between atoms: C_12  and  N_30
REMARK    8  A    between atoms: C_13  and  N_14
REMARK    9  A    between atoms: N_14  and  C_15
REMARK   10  A    between atoms: N_14  and  C_26
REMARK   11  A    between atoms: C_15  and  C_16
REMARK   12  A    between atoms: C_16  and  N_17
REMARK   13  A    between atoms: N_17  and  C_18
REMARK   14  A    between atoms: N_17  and  C_22
REMARK   15  A    between atoms: C_18  and  C_19
REMARK   16  A    between atoms: C_22  and  C_23
REMARK   17  A    between atoms: C_26  and  C_27
REMARK   18  A    between atoms: N_30  and  C_31
REMARK   19  A    between atoms: N_30  and  C_35
REMARK   20  A    between atoms: C_31  and  C_32
REMARK   21  A    between atoms: C_35  and  C_36
REMARK                            x       y       z     vdW  Elec       q    Type
REMARK                         _______ _______ _______ _____ _____    ______ ____
ROOT
ATOM      1 GD   UNL     1       1.077   0.053  -0.036  0.00  0.00    +0.000 Gd
ENDROOT
TORSDOF 0
REMARK  Name = 
REMARK  21 active torsions:
REMARK  status: ('A' for Active; 'I' for Inactive)
REMARK    1  A    between atoms: C_4  and  C_5
REMARK    2  A    between atoms: C_5  and  O_6
REMARK    3  A    between atoms: O_6  and  C_7
REMARK    4  A    between atoms: C_10  and  C_11
REMARK    5  A    between atoms: C_11  and  C_12
REMARK    6  A    between atoms: C_12  and  C_13
REMARK    7  A    between atoms: C_12  and  N_30
REMARK    8  A    between atoms: C_13  and  N_14
REMARK    9  A    between atoms: N_14  and  C_15
REMARK   10  A    between atoms: N_14  and  C_26
REMARK   11  A    between atoms: C_15  and  C_16
REMARK   12  A    between atoms: C_16  and  N_17
REMARK   13  A    between atoms: N_17  and  C_18
REMARK   14  A    between atoms: N_17  and  C_22
REMARK   15  A    between atoms: C_18  and  C_19
REMARK   16  A    between atoms: C_22  and  C_23
REMARK   17  A    between atoms: C_26  and  C_27
REMARK   18  A    between atoms: N_30  and  C_31
REMARK   19  A    between atoms: N_30  and  C_35
REMARK   20  A    between atoms: C_31  and  C_32
REMARK   21  A    between atoms: C_35  and  C_36
REMARK                            x       y       z     vdW  Elec       q    Type
REMARK                         _______ _______ _______ _____ _____    ______ ____
ROOT
ATOM      1  C   UNL     1       6.831  -0.379   4.685  0.00  0.00    +0.000 C 
ENDROOT
BRANCH   1   2
ATOM      2  C   UNL     1       6.569  -0.875   3.272  0.00  0.00    +0.000 C 
BRANCH   2   6
ATOM      3  C   UNL     1       2.397  -1.086   2.383  0.00  0.00    +0.000 A 
ATOM      4  C   UNL     1       2.909  -1.911   3.371  0.00  0.00    +0.000 A 
ATOM      5  C   UNL     1       4.242  -1.609   3.736  0.00  0.00    +0.000 A 
ATOM      6  C   UNL     1       5.072  -0.885   3.008  0.00  0.00    +0.000 A 
ATOM      7  C   UNL     1       4.513  -0.144   2.004  0.00  0.00    +0.000 A 
ATOM      8  C   UNL     1       3.187  -0.288   1.674  0.00  0.00    +0.000 A 
BRANCH   3   9
ATOM      9  O   UNL     1       1.001  -1.093   2.124  0.00  0.00    +0.000 OA
BRANCH   9  11
ATOM     10  C   UNL     1       1.034   0.088   0.033  0.00  0.00    +0.000 C 
ATOM     11  C   UNL     1       0.528  -1.132   0.786  0.00  0.00    +0.000 C 
ENDBRANCH   9  11
ENDBRANCH   3   9
ENDBRANCH   2   6
ENDBRANCH   1   2
BRANCH   1  12
ATOM     12  C   UNL     1       6.147  -1.301   5.680  0.00  0.00    +0.000 C 
BRANCH  12  13
ATOM     13  N   UNL     1       6.680  -2.663   5.532  0.00  0.00    +0.000 NA
BRANCH  13  14
ATOM     14  C   UNL     1       6.018  -3.556   6.496  0.00  0.00    +0.000 C 
BRANCH  14  15
ATOM     15  C   UNL     1       4.522  -3.565   6.232  0.00  0.00    +0.000 C 
BRANCH  15  16
ATOM     16  N   UNL     1       4.268  -4.045   4.865  0.00  0.00    +0.000 NA
BRANCH  16  17
ATOM     17  C   UNL     1       2.820  -4.054   4.610  0.00  0.00    +0.000 C 
BRANCH  17  18
ATOM     18  C   UNL     1       2.270  -2.646   4.763  0.00  0.00    +0.000 C 
ATOM     19  O   UNL     1       1.630  -2.011   3.666  0.00  0.00    +0.000 OA
ATOM     20  O   UNL     1       2.382  -2.037   5.873  0.00  0.00    +0.000 OA
ENDBRANCH  17  18
ENDBRANCH  16  17
BRANCH  16  21
ATOM     21  C   UNL     1       4.930  -3.153   3.902  0.00  0.00    +0.000 C 
BRANCH  21  22
ATOM     22  C   UNL     1       4.379  -1.744   4.055  0.00  0.00    +0.000 C 
ATOM     23  O   UNL     1       5.249  -0.675   4.397  0.00  0.00    +0.000 OA
ATOM     24  O   UNL     1       3.140  -1.524   3.877  0.00  0.00    +0.000 OA
ENDBRANCH  21  22
ENDBRANCH  16  21
ENDBRANCH  15  16
ENDBRANCH  14  15
ENDBRANCH  13  14
BRANCH  13  25
ATOM     25  C   UNL     1       6.426  -3.143   4.166  0.00  0.00    +0.000 C 
BRANCH  25  26
ATOM     26  C   UNL     1       4.930  -3.153   3.902  0.00  0.00    +0.000 C 
ATOM     27  O   UNL     1       4.389  -2.369   2.849  0.00  0.00    +0.000 OA
ATOM     28  O   UNL     1       4.162  -3.863   4.624  0.00  0.00    +0.000 OA
ENDBRANCH  25  26
ENDBRANCH  13  25
ENDBRANCH  12  13
ENDBRANCH   1  12
BRANCH   1  29
ATOM     29  N   UNL     1       8.279  -0.369   4.940  0.00  0.00    +0.000 NA
BRANCH  29  30
ATOM     30  C   UNL     1       8.533   0.110   6.306  0.00  0.00    +0.000 C 
BRANCH  30  31
ATOM     31  C   UNL     1       7.848  -0.812   7.302  0.00  0.00    +0.000 C 
ATOM     32  O   UNL     1       8.618  -1.499   8.278  0.00  0.00    +0.000 OA
ATOM     33  O   UNL     1       6.588  -0.969   7.261  0.00  0.00    +0.000 OA
ENDBRANCH  30  31
ENDBRANCH  29  30
BRANCH  29  34
ATOM     34  C   UNL     1       8.812  -1.732   4.792  0.00  0.00    +0.000 C 
BRANCH  34  35
ATOM     35  C   UNL     1       8.128  -2.654   5.788  0.00  0.00    +0.000 C 
ATOM     36  O   UNL     1       7.387  -3.774   5.325  0.00  0.00    +0.000 OA
ATOM     37  O   UNL     1       8.218  -2.423   7.034  0.00  0.00    +0.000 OA
ENDBRANCH  34  35
ENDBRANCH  29  34
ENDBRANCH   1  29
TORSDOF 20
