REMARK  Name = 
REMARK  18 active torsions:
REMARK  status: ('A' for Active; 'I' for Inactive)
REMARK    1  A    between atoms: C_3  and  N_4
REMARK    2  A    between atoms: C_5  and  C_7
REMARK    3  A    between atoms: C_7  and  N_8
REMARK    4  A    between atoms: N_8  and  C_9
REMARK    5  A    between atoms: N_8  and  C_28
REMARK    6  A    between atoms: C_9  and  C_10
REMARK    7  A    between atoms: C_10  and  N_11
REMARK    8  A    between atoms: N_11  and  C_12
REMARK    9  A    between atoms: N_11  and  C_24
REMARK   10  A    between atoms: C_12  and  C_13
REMARK   11  A    between atoms: C_13  and  N_14
REMARK   12  A    between atoms: N_14  and  C_15
REMARK   13  A    between atoms: N_14  and  C_19
REMARK   14  A    between atoms: C_15  and  C_16
REMARK   15  A    between atoms: C_19  and  C_20
REMARK   16  A    between atoms: N_22  and  C_23
REMARK   17  A    between atoms: C_24  and  C_25
REMARK   18  A    between atoms: C_28  and  C_29
REMARK                            x       y       z     vdW  Elec       q    Type
REMARK                         _______ _______ _______ _____ _____    ______ ____
ROOT
ATOM      1  O   HOH     1       1.059   0.070   0.040  0.00  0.00    +0.000 OA
ATOM      2  H   HOH     0       0.726   0.782   0.657  0.00  0.00    +0.000 HD
ATOM      3  H   HOH     0       2.059   0.070   0.040  0.00  0.00    +0.000 HD
ENDROOT
TORSDOF 0
REMARK  Name = 
REMARK  18 active torsions:
REMARK  status: ('A' for Active; 'I' for Inactive)
REMARK    1  A    between atoms: C_3  and  N_4
REMARK    2  A    between atoms: C_5  and  C_7
REMARK    3  A    between atoms: C_7  and  N_8
REMARK    4  A    between atoms: N_8  and  C_9
REMARK    5  A    between atoms: N_8  and  C_28
REMARK    6  A    between atoms: C_9  and  C_10
REMARK    7  A    between atoms: C_10  and  N_11
REMARK    8  A    between atoms: N_11  and  C_12
REMARK    9  A    between atoms: N_11  and  C_24
REMARK   10  A    between atoms: C_12  and  C_13
REMARK   11  A    between atoms: C_13  and  N_14
REMARK   12  A    between atoms: N_14  and  C_15
REMARK   13  A    between atoms: N_14  and  C_19
REMARK   14  A    between atoms: C_15  and  C_16
REMARK   15  A    between atoms: C_19  and  C_20
REMARK   16  A    between atoms: N_22  and  C_23
REMARK   17  A    between atoms: C_24  and  C_25
REMARK   18  A    between atoms: C_28  and  C_29
REMARK                            x       y       z     vdW  Elec       q    Type
REMARK                         _______ _______ _______ _____ _____    ______ ____
ROOT
ATOM      1 GD   UNL     1       0.921  -0.037  -0.049  0.00  0.00    +0.000 Gd
ENDROOT
TORSDOF 0
REMARK  Name = 
REMARK  18 active torsions:
REMARK  status: ('A' for Active; 'I' for Inactive)
REMARK    1  A    between atoms: C_3  and  N_4
REMARK    2  A    between atoms: C_5  and  C_7
REMARK    3  A    between atoms: C_7  and  N_8
REMARK    4  A    between atoms: N_8  and  C_9
REMARK    5  A    between atoms: N_8  and  C_28
REMARK    6  A    between atoms: C_9  and  C_10
REMARK    7  A    between atoms: C_10  and  N_11
REMARK    8  A    between atoms: N_11  and  C_12
REMARK    9  A    between atoms: N_11  and  C_24
REMARK   10  A    between atoms: C_12  and  C_13
REMARK   11  A    between atoms: C_13  and  N_14
REMARK   12  A    between atoms: N_14  and  C_15
REMARK   13  A    between atoms: N_14  and  C_19
REMARK   14  A    between atoms: C_15  and  C_16
REMARK   15  A    between atoms: C_19  and  C_20
REMARK   16  A    between atoms: N_22  and  C_23
REMARK   17  A    between atoms: C_24  and  C_25
REMARK   18  A    between atoms: C_28  and  C_29
REMARK                            x       y       z     vdW  Elec       q    Type
REMARK                         _______ _______ _______ _____ _____    ______ ____
ROOT
ATOM      1  N   UNL     1       0.050  -5.504  -1.304  0.00  0.00    +0.000 NA
ENDROOT
BRANCH   1   2
ATOM      2  C   UNL     1      -0.685  -4.955  -0.156  0.00  0.00    +0.000 C 
BRANCH   2   3
ATOM      3  C   UNL     1       0.189  -3.945   0.569  0.00  0.00    +0.000 C 
BRANCH   3   4
ATOM      4  N   UNL     1       0.544  -2.855  -0.351  0.00  0.00    +0.000 NA
BRANCH   4   5
ATOM      5  C   UNL     1      -0.681  -2.194  -0.824  0.00  0.00    +0.000 C 
BRANCH   5   8
ATOM      6  C   UNL     1       1.022   0.061   0.076  0.00  0.00    +0.000 C 
ATOM      7  N   UNL     1       0.532   0.042  -1.310  0.00  0.00    +0.000 N 
ATOM      8  C   UNL     1      -0.314  -1.067  -1.775  0.00  0.00    +0.000 C 
ATOM      9  O   UNL     1      -0.737  -1.083  -2.973  0.00  0.00    +0.000 OA
ATOM     10  H   UNL     1       0.778   0.798  -1.948  0.00  0.00    +0.000 HD
ENDBRANCH   5   8
ENDBRANCH   4   5
BRANCH   4  11
ATOM     11  C   UNL     1       1.279  -3.404  -1.500  0.00  0.00    +0.000 C 
BRANCH  11  12
ATOM     12  C   UNL     1       0.405  -4.414  -2.225  0.00  0.00    +0.000 C 
ATOM     13  O   UNL     1       0.062  -4.208  -3.587  0.00  0.00    +0.000 OA
ATOM     14  O   UNL     1      -0.018  -5.444  -1.611  0.00  0.00    +0.000 OA
ENDBRANCH  11  12
ENDBRANCH   4  11
ENDBRANCH   3   4
ENDBRANCH   2   3
ENDBRANCH   1   2
BRANCH   1  15
ATOM     15  C   UNL     1      -0.795  -6.482  -2.005  0.00  0.00    +0.000 C 
BRANCH  15  16
ATOM     16  C   UNL     1      -2.062  -5.798  -2.494  0.00  0.00    +0.000 C 
BRANCH  16  17
ATOM     17  N   UNL     1      -1.706  -4.708  -3.414  0.00  0.00    +0.000 NA
BRANCH  17  18
ATOM     18  C   UNL     1      -2.931  -4.047  -3.887  0.00  0.00    +0.000 C 
BRANCH  18  19
ATOM     19  C   UNL     1      -3.691  -3.480  -2.699  0.00  0.00    +0.000 C 
ATOM     20  O   UNL     1      -3.949  -2.085  -2.621  0.00  0.00    +0.000 OA
ATOM     21  O   UNL     1      -4.097  -4.253  -1.776  0.00  0.00    +0.000 OA
ENDBRANCH  18  19
ENDBRANCH  17  18
BRANCH  17  22
ATOM     22  C   UNL     1      -0.861  -3.731  -2.713  0.00  0.00    +0.000 C 
BRANCH  22  23
ATOM     23  C   UNL     1      -1.621  -3.163  -1.525  0.00  0.00    +0.000 C 
ATOM     24  O   UNL     1      -1.161  -3.306  -0.350  0.00  0.00    +0.000 OA
ATOM     25  N   UNL     1      -2.889  -2.450  -1.737  0.00  0.00    +0.000 N 
ATOM     26  C   UNL     1      -3.422  -2.285  -3.097  0.00  0.00    +0.000 C 
ATOM     27  H   UNL     1      -3.399  -2.069  -0.940  0.00  0.00    +0.000 HD
ENDBRANCH  22  23
ENDBRANCH  17  22
ENDBRANCH  16  17
ENDBRANCH  15  16
ENDBRANCH   1  15
BRANCH   1  28
ATOM     28  C   UNL     1       0.405  -4.414  -2.225  0.00  0.00    +0.000 C 
BRANCH  28  29
ATOM     29  C   UNL     1      -0.861  -3.731  -2.713  0.00  0.00    +0.000 C 
ATOM     30  O   UNL     1      -1.065  -2.349  -2.459  0.00  0.00    +0.000 OA
ATOM     31  O   UNL     1      -1.738  -4.396  -3.349  0.00  0.00    +0.000 OA
ENDBRANCH  28  29
ENDBRANCH   1  28
TORSDOF 16
