REMARK  Name = 
REMARK  4 active torsions:
REMARK  status: ('A' for Active; 'I' for Inactive)
REMARK    1  A    between atoms: C_3  and  O_4
REMARK    2  A    between atoms: N_10  and  C_11
REMARK    3  A    between atoms: C_17  and  O_18
REMARK    4  A    between atoms: O_18  and  C_19
REMARK                            x       y       z     vdW  Elec       q    Type
REMARK                         _______ _______ _______ _____ _____    ______ ____
ROOT
ATOM      1  C   UNL     1      -1.585  -1.172   0.746  0.00  0.00    +0.191 C 
ATOM      2  C   UNL     1      -2.380  -2.172  -0.118  0.00  0.00    +0.081 C 
ATOM      3  C   UNL     1      -1.471  -3.292  -0.622  0.00  0.00    +0.141 C 
ATOM      4  C   UNL     1      -0.394  -2.677  -1.470  0.00  0.00    +0.001 C 
ATOM      5  C   UNL     1       0.197  -1.536  -1.088  0.00  0.00    -0.013 C 
ATOM      6  C   UNL     1      -0.100  -0.887   0.263  0.00  0.00    +0.056 C 
ATOM      7  C   UNL     1       0.927  -1.357   1.338  0.00  0.00    +0.035 C 
ATOM      8  C   UNL     1       2.303  -0.668   1.284  0.00  0.00    +0.086 C 
ATOM      9  N   UNL     1       2.673  -0.353  -0.111  0.00  0.00    -0.301 NA
ATOM     10  C   UNL     1       4.091  -0.654  -0.364  0.00  0.00    +0.105 C 
ATOM     11  C   UNL     1       2.389   1.057  -0.457  0.00  0.00    +0.119 C 
ATOM     12  C   UNL     1       0.956   1.492  -0.201  0.00  0.00    -0.026 A 
ATOM     13  C   UNL     1      -0.102   0.612   0.123  0.00  0.00    +0.016 A 
ATOM     14  C   UNL     1      -1.360   1.094   0.388  0.00  0.00    +0.167 A 
ATOM     15  O   UNL     1      -2.239   0.092   0.733  0.00  0.00    -0.484 OA
ATOM     16  C   UNL     1      -1.671   2.450   0.315  0.00  0.00    +0.162 A 
ATOM     17  C   UNL     1      -0.641   3.344  -0.038  0.00  0.00    +0.050 A 
ATOM     18  C   UNL     1       0.656   2.867  -0.290  0.00  0.00    +0.009 A 
ENDROOT
BRANCH   3  19
ATOM     19  O   UNL     1      -2.224  -4.201  -1.380  0.00  0.00    -0.388 OA
ATOM     20  H   UNL     1      -1.674  -5.023  -1.469  0.00  0.00    +0.210 HD
ENDBRANCH   3  19
BRANCH  16  21
ATOM     21  O   UNL     1      -2.982   2.866   0.592  0.00  0.00    -0.491 OA
ATOM     22  C   UNL     1      -3.416   4.221   0.549  0.00  0.00    +0.277 C 
ENDBRANCH  16  21
TORSDOF 2
