REMARK  Name = 
REMARK  0 active torsions:
REMARK  status: ('A' for Active; 'I' for Inactive)
REMARK                            x       y       z     vdW  Elec       q    Type
REMARK                         _______ _______ _______ _____ _____    ______ ____
ROOT
ATOM      1 GA   UNL     1       0.975  -0.007  -0.097  0.00  0.00    +0.000 Ga
ENDROOT
TORSDOF 0
REMARK  Name = 
REMARK  0 active torsions:
REMARK  status: ('A' for Active; 'I' for Inactive)
REMARK                            x       y       z     vdW  Elec       q    Type
REMARK                         _______ _______ _______ _____ _____    ______ ____
ROOT
ATOM      1  O   UNL     1       0.936  -0.029   0.071  0.00  0.00    +0.000 OA
ATOM      2  N   UNL     1       2.306  -0.029   0.071  0.00  0.00    +0.000 N 
ATOM      3  O   UNL     1       2.991   1.099   0.442  0.00  0.00    +0.000 OA
ATOM      4  O   UNL     1       2.919  -1.037  -0.261  0.00  0.00    +0.000 OA
ENDROOT
TORSDOF 0
REMARK  Name = 
REMARK  0 active torsions:
REMARK  status: ('A' for Active; 'I' for Inactive)
REMARK                            x       y       z     vdW  Elec       q    Type
REMARK                         _______ _______ _______ _____ _____    ______ ____
ROOT
ATOM      1  O   UNL     1       0.965  -0.063  -0.069  0.00  0.00    +0.000 OA
ATOM      2  N   UNL     1       2.335  -0.063  -0.069  0.00  0.00    +0.000 N 
ATOM      3  O   UNL     1       3.020   0.568  -1.074  0.00  0.00    +0.000 OA
ATOM      4  O   UNL     1       2.948  -0.627   0.830  0.00  0.00    +0.000 OA
ENDROOT
TORSDOF 0
REMARK  Name = 
REMARK  0 active torsions:
REMARK  status: ('A' for Active; 'I' for Inactive)
REMARK                            x       y       z     vdW  Elec       q    Type
REMARK                         _______ _______ _______ _____ _____    ______ ____
ROOT
ATOM      1  O   UNL     1       1.034  -0.094   0.004  0.00  0.00    +0.000 OA
ATOM      2  N   UNL     1       2.404  -0.094   0.004  0.00  0.00    +0.000 N 
ATOM      3  O   UNL     1       3.089  -1.228  -0.344  0.00  0.00    +0.000 OA
ATOM      4  O   UNL     1       3.017   0.921   0.316  0.00  0.00    +0.000 OA
ENDROOT
TORSDOF 0
