REMARK  Name = 
REMARK  30 active torsions:
REMARK  status: ('A' for Active; 'I' for Inactive)
REMARK    1  A    between atoms: C_4  and  C_5
REMARK    2  A    between atoms: C_5  and  N_6
REMARK    3  A    between atoms: N_6  and  C_7
REMARK    4  A    between atoms: N_6  and  C_9
REMARK    5  A    between atoms: N_6  and  C_11
REMARK    6  A    between atoms: C_7  and  C_8
REMARK    7  A    between atoms: C_9  and  C_10
REMARK    8  A    between atoms: C_11  and  C_12
REMARK    9  A    between atoms: C_12  and  O_13
REMARK   10  A    between atoms: O_13  and  C_14
REMARK   11  A    between atoms: C_18  and  O_19
REMARK   12  A    between atoms: O_19  and  C_20
REMARK   13  A    between atoms: C_20  and  C_21
REMARK   14  A    between atoms: C_21  and  N_22
REMARK   15  A    between atoms: N_22  and  C_23
REMARK   16  A    between atoms: N_22  and  C_25
REMARK   17  A    between atoms: N_22  and  C_27
REMARK   18  A    between atoms: C_23  and  C_24
REMARK   19  A    between atoms: C_25  and  C_26
REMARK   20  A    between atoms: C_27  and  C_28
REMARK   21  A    between atoms: C_29  and  O_30
REMARK   22  A    between atoms: O_30  and  C_31
REMARK   23  A    between atoms: C_31  and  C_32
REMARK   24  A    between atoms: C_32  and  N_33
REMARK   25  A    between atoms: N_33  and  C_34
REMARK   26  A    between atoms: N_33  and  C_36
REMARK   27  A    between atoms: N_33  and  C_38
REMARK   28  A    between atoms: C_34  and  C_35
REMARK   29  A    between atoms: C_36  and  C_37
REMARK   30  A    between atoms: C_38  and  C_39
REMARK                            x       y       z     vdW  Elec       q    Type
REMARK                         _______ _______ _______ _____ _____    ______ ____
ROOT
ATOM      1  I   UNL     1       0.951   0.034   0.080  0.00  0.00    +0.000 I 
ENDROOT
TORSDOF 0
REMARK  Name = 
REMARK  30 active torsions:
REMARK  status: ('A' for Active; 'I' for Inactive)
REMARK    1  A    between atoms: C_4  and  C_5
REMARK    2  A    between atoms: C_5  and  N_6
REMARK    3  A    between atoms: N_6  and  C_7
REMARK    4  A    between atoms: N_6  and  C_9
REMARK    5  A    between atoms: N_6  and  C_11
REMARK    6  A    between atoms: C_7  and  C_8
REMARK    7  A    between atoms: C_9  and  C_10
REMARK    8  A    between atoms: C_11  and  C_12
REMARK    9  A    between atoms: C_12  and  O_13
REMARK   10  A    between atoms: O_13  and  C_14
REMARK   11  A    between atoms: C_18  and  O_19
REMARK   12  A    between atoms: O_19  and  C_20
REMARK   13  A    between atoms: C_20  and  C_21
REMARK   14  A    between atoms: C_21  and  N_22
REMARK   15  A    between atoms: N_22  and  C_23
REMARK   16  A    between atoms: N_22  and  C_25
REMARK   17  A    between atoms: N_22  and  C_27
REMARK   18  A    between atoms: C_23  and  C_24
REMARK   19  A    between atoms: C_25  and  C_26
REMARK   20  A    between atoms: C_27  and  C_28
REMARK   21  A    between atoms: C_29  and  O_30
REMARK   22  A    between atoms: O_30  and  C_31
REMARK   23  A    between atoms: C_31  and  C_32
REMARK   24  A    between atoms: C_32  and  N_33
REMARK   25  A    between atoms: N_33  and  C_34
REMARK   26  A    between atoms: N_33  and  C_36
REMARK   27  A    between atoms: N_33  and  C_38
REMARK   28  A    between atoms: C_34  and  C_35
REMARK   29  A    between atoms: C_36  and  C_37
REMARK   30  A    between atoms: C_38  and  C_39
REMARK                            x       y       z     vdW  Elec       q    Type
REMARK                         _______ _______ _______ _____ _____    ______ ____
ROOT
ATOM      1  I   UNL     1       1.041   0.085   0.033  0.00  0.00    +0.000 I 
ENDROOT
TORSDOF 0
REMARK  Name = 
REMARK  30 active torsions:
REMARK  status: ('A' for Active; 'I' for Inactive)
REMARK    1  A    between atoms: C_4  and  C_5
REMARK    2  A    between atoms: C_5  and  N_6
REMARK    3  A    between atoms: N_6  and  C_7
REMARK    4  A    between atoms: N_6  and  C_9
REMARK    5  A    between atoms: N_6  and  C_11
REMARK    6  A    between atoms: C_7  and  C_8
REMARK    7  A    between atoms: C_9  and  C_10
REMARK    8  A    between atoms: C_11  and  C_12
REMARK    9  A    between atoms: C_12  and  O_13
REMARK   10  A    between atoms: O_13  and  C_14
REMARK   11  A    between atoms: C_18  and  O_19
REMARK   12  A    between atoms: O_19  and  C_20
REMARK   13  A    between atoms: C_20  and  C_21
REMARK   14  A    between atoms: C_21  and  N_22
REMARK   15  A    between atoms: N_22  and  C_23
REMARK   16  A    between atoms: N_22  and  C_25
REMARK   17  A    between atoms: N_22  and  C_27
REMARK   18  A    between atoms: C_23  and  C_24
REMARK   19  A    between atoms: C_25  and  C_26
REMARK   20  A    between atoms: C_27  and  C_28
REMARK   21  A    between atoms: C_29  and  O_30
REMARK   22  A    between atoms: O_30  and  C_31
REMARK   23  A    between atoms: C_31  and  C_32
REMARK   24  A    between atoms: C_32  and  N_33
REMARK   25  A    between atoms: N_33  and  C_34
REMARK   26  A    between atoms: N_33  and  C_36
REMARK   27  A    between atoms: N_33  and  C_38
REMARK   28  A    between atoms: C_34  and  C_35
REMARK   29  A    between atoms: C_36  and  C_37
REMARK   30  A    between atoms: C_38  and  C_39
REMARK                            x       y       z     vdW  Elec       q    Type
REMARK                         _______ _______ _______ _____ _____    ______ ____
ROOT
ATOM      1  I   UNL     1       1.076  -0.028  -0.058  0.00  0.00    +0.000 I 
ENDROOT
TORSDOF 0
REMARK  Name = 
REMARK  30 active torsions:
REMARK  status: ('A' for Active; 'I' for Inactive)
REMARK    1  A    between atoms: C_4  and  C_5
REMARK    2  A    between atoms: C_5  and  N_6
REMARK    3  A    between atoms: N_6  and  C_7
REMARK    4  A    between atoms: N_6  and  C_9
REMARK    5  A    between atoms: N_6  and  C_11
REMARK    6  A    between atoms: C_7  and  C_8
REMARK    7  A    between atoms: C_9  and  C_10
REMARK    8  A    between atoms: C_11  and  C_12
REMARK    9  A    between atoms: C_12  and  O_13
REMARK   10  A    between atoms: O_13  and  C_14
REMARK   11  A    between atoms: C_18  and  O_19
REMARK   12  A    between atoms: O_19  and  C_20
REMARK   13  A    between atoms: C_20  and  C_21
REMARK   14  A    between atoms: C_21  and  N_22
REMARK   15  A    between atoms: N_22  and  C_23
REMARK   16  A    between atoms: N_22  and  C_25
REMARK   17  A    between atoms: N_22  and  C_27
REMARK   18  A    between atoms: C_23  and  C_24
REMARK   19  A    between atoms: C_25  and  C_26
REMARK   20  A    between atoms: C_27  and  C_28
REMARK   21  A    between atoms: C_29  and  O_30
REMARK   22  A    between atoms: O_30  and  C_31
REMARK   23  A    between atoms: C_31  and  C_32
REMARK   24  A    between atoms: C_32  and  N_33
REMARK   25  A    between atoms: N_33  and  C_34
REMARK   26  A    between atoms: N_33  and  C_36
REMARK   27  A    between atoms: N_33  and  C_38
REMARK   28  A    between atoms: C_34  and  C_35
REMARK   29  A    between atoms: C_36  and  C_37
REMARK   30  A    between atoms: C_38  and  C_39
REMARK                            x       y       z     vdW  Elec       q    Type
REMARK                         _______ _______ _______ _____ _____    ______ ____
ROOT
ATOM      1  C   UNL     1       1.168  -1.534  -1.898  0.00  0.00    +0.165 A 
ATOM      2  C   UNL     1       0.656  -1.411  -3.179  0.00  0.00    +0.049 A 
ATOM      3  C   UNL     1      -0.677  -0.939  -3.221  0.00  0.00    +0.007 A 
ATOM      4  C   UNL     1      -1.507  -0.948  -2.194  0.00  0.00    +0.049 A 
ATOM      5  C   UNL     1      -0.948  -1.142  -0.962  0.00  0.00    +0.165 A 
ATOM      6  C   UNL     1       0.378  -1.478  -0.832  0.00  0.00    +0.204 A 
ENDROOT
BRANCH   1   7
ATOM      7  O   UNL     1       2.564  -1.724  -1.721  0.00  0.00    -0.490 OA
BRANCH   7   8
ATOM      8  C   UNL     1       3.038  -2.703  -0.808  0.00  0.00    +0.211 C 
BRANCH   8   9
ATOM      9  C   UNL     1       2.531  -2.381   0.588  0.00  0.00    -0.034 C 
BRANCH   9  10
ATOM     10  N   UNL     1       1.061  -2.381   0.588  0.00  0.00    +0.382 N 
BRANCH  10  12
ATOM     11  C   UNL     1       1.078   0.003   0.063  0.00  0.00    -0.016 C 
ATOM     12  C   UNL     1       0.571  -1.367  -0.357  0.00  0.00    -0.078 C 
ENDBRANCH  10  12
BRANCH  10  13
ATOM     13  C   UNL     1       0.571  -2.070   1.939  0.00  0.00    -0.078 C 
ATOM     14  C   UNL     1      -0.949  -2.070   1.939  0.00  0.00    -0.016 C 
ENDBRANCH  10  13
BRANCH  10  15
ATOM     15  C   UNL     1       0.571  -3.707   0.182  0.00  0.00    -0.078 C 
ATOM     16  C   UNL     1       1.078  -4.029  -1.214  0.00  0.00    -0.016 C 
ENDBRANCH  10  15
ENDBRANCH   9  10
ENDBRANCH   8   9
ENDBRANCH   7   8
ENDBRANCH   1   7
BRANCH   5  17
ATOM     17  O   UNL     1      -1.749  -0.995   0.201  0.00  0.00    -0.490 OA
BRANCH  17  18
ATOM     18  C   UNL     1      -1.179  -1.194   1.487  0.00  0.00    +0.211 C 
BRANCH  18  19
ATOM     19  C   UNL     1      -0.642  -2.612   1.588  0.00  0.00    -0.034 C 
BRANCH  19  20
ATOM     20  N   UNL     1       0.386  -2.822   0.558  0.00  0.00    +0.382 N 
BRANCH  20  21
ATOM     21  C   UNL     1       1.484  -1.866   0.760  0.00  0.00    -0.078 C 
ATOM     22  C   UNL     1       2.095  -2.079   2.136  0.00  0.00    -0.016 C 
ENDBRANCH  20  21
BRANCH  20  23
ATOM     23  C   UNL     1       0.906  -4.193   0.657  0.00  0.00    -0.078 C 
ATOM     24  C   UNL     1      -0.230  -5.182   0.448  0.00  0.00    -0.016 C 
ENDBRANCH  20  23
BRANCH  20  25
ATOM     25  C   UNL     1      -0.204  -2.616  -0.772  0.00  0.00    -0.078 C 
ATOM     26  C   UNL     1      -1.340  -3.604  -0.981  0.00  0.00    -0.016 C 
ENDBRANCH  20  25
ENDBRANCH  19  20
ENDBRANCH  18  19
ENDBRANCH  17  18
ENDBRANCH   5  17
BRANCH   6  27
ATOM     27  O   UNL     1       0.909  -1.767   0.453  0.00  0.00    -0.487 OA
BRANCH  27  28
ATOM     28  C   UNL     1       2.278  -2.114   0.594  0.00  0.00    +0.211 C 
BRANCH  28  29
ATOM     29  C   UNL     1       2.568  -3.368  -0.214  0.00  0.00    -0.034 C 
BRANCH  29  30
ATOM     30  N   UNL     1       2.270  -3.119  -1.631  0.00  0.00    +0.382 N 
BRANCH  30  31
ATOM     31  C   UNL     1       3.108  -2.015  -2.121  0.00  0.00    -0.078 C 
ATOM     32  C   UNL     1       4.574  -2.387  -1.970  0.00  0.00    -0.016 C 
ENDBRANCH  30  31
BRANCH  30  33
ATOM     33  C   UNL     1       2.551  -4.332  -2.412  0.00  0.00    -0.078 C 
ATOM     34  C   UNL     1       1.684  -5.473  -1.905  0.00  0.00    -0.016 C 
ENDBRANCH  30  33
BRANCH  30  35
ATOM     35  C   UNL     1       0.852  -2.759  -1.777  0.00  0.00    -0.078 C 
ATOM     36  C   UNL     1      -0.015  -3.900  -1.270  0.00  0.00    -0.016 C 
ENDBRANCH  30  35
ENDBRANCH  29  30
ENDBRANCH  28  29
ENDBRANCH  27  28
ENDBRANCH   6  27
TORSDOF 21
