REMARK  Name = 
REMARK  4 active torsions:
REMARK  status: ('A' for Active; 'I' for Inactive)
REMARK    1  A    between atoms: O_1  and  C_2
REMARK    2  A    between atoms: C_2  and  C_3
REMARK    3  A    between atoms: C_3  and  C_4
REMARK    4  A    between atoms: C_4  and  C_5
REMARK                            x       y       z     vdW  Elec       q    Type
REMARK                         _______ _______ _______ _____ _____    ______ ____
ROOT
ATOM      1  C   UNL     1      -0.072  -0.658   0.251  0.00  0.00    +0.039 C 
ENDROOT
BRANCH   1   2
ATOM      2  C   UNL     1      -1.591  -0.477   0.187  0.00  0.00    +0.156 C 
BRANCH   2   3
ATOM      3  O   UNL     1      -2.006  -0.226  -1.130  0.00  0.00    -0.395 OA
ATOM      4  H   UNL     1      -2.005   0.759  -1.250  0.00  0.00    +0.209 HD
ENDBRANCH   2   3
ENDBRANCH   1   2
BRANCH   1   5
ATOM      5  C   UNL     1       0.675   0.643  -0.062  0.00  0.00    +0.127 C 
BRANCH   5   6
ATOM      6  C   UNL     1       2.151   0.442   0.069  0.00  0.00    +0.356 C 
ATOM      7  O   UNL     1       2.890  -0.011  -1.017  0.00  0.00    -0.246 OA
ATOM      8  O   UNL     1       2.722   0.641   1.173  0.00  0.00    -0.246 OA
ENDBRANCH   5   6
ENDBRANCH   1   5
TORSDOF 4
