REMARK  Name = 
REMARK  17 active torsions:
REMARK  status: ('A' for Active; 'I' for Inactive)
REMARK    1  A    between atoms: C_1  and  C_2
REMARK    2  A    between atoms: C_2  and  C_3
REMARK    3  A    between atoms: C_3  and  C_4
REMARK    4  A    between atoms: C_4  and  C_5
REMARK    5  A    between atoms: C_5  and  C_6
REMARK    6  A    between atoms: C_7  and  C_8
REMARK    7  A    between atoms: C_8  and  C_9
REMARK    8  A    between atoms: C_10  and  C_11
REMARK    9  A    between atoms: C_11  and  C_12
REMARK   10  A    between atoms: C_13  and  C_14
REMARK   11  A    between atoms: C_14  and  C_15
REMARK   12  A    between atoms: C_15  and  C_16
REMARK   13  A    between atoms: C_16  and  C_17
REMARK   14  A    between atoms: C_17  and  C_18
REMARK   15  A    between atoms: C_18  and  C_19
REMARK   16  A    between atoms: C_19  and  C_20
REMARK   17  A    between atoms: C_20  and  O_21
REMARK                            x       y       z     vdW  Elec       q    Type
REMARK                         _______ _______ _______ _____ _____    ______ ____
ROOT
ATOM      1  C   UNL     1       0.449   1.849   0.359  0.00  0.00    -0.027 C 
ATOM      2  C   UNL     1       1.400   0.983   0.744  0.00  0.00    -0.031 C 
ENDROOT
BRANCH   1   3
ATOM      3  C   UNL     1      -0.079   1.920  -1.053  0.00  0.00    +0.053 C 
BRANCH   3   5
ATOM      4  C   UNL     1      -2.497   2.547  -0.713  0.00  0.00    -0.027 C 
ATOM      5  C   UNL     1      -1.258   2.855  -1.143  0.00  0.00    -0.027 C 
BRANCH   4   6
ATOM      6  C   UNL     1      -2.875   1.218  -0.109  0.00  0.00    +0.053 C 
BRANCH   6   8
ATOM      7  C   UNL     1      -3.304  -1.132  -0.900  0.00  0.00    -0.031 C 
ATOM      8  C   UNL     1      -3.014   0.154  -1.166  0.00  0.00    -0.027 C 
BRANCH   7   9
ATOM      9  C   UNL     1      -3.544  -1.694   0.481  0.00  0.00    +0.027 C 
BRANCH   9  10
ATOM     10  C   UNL     1      -4.993  -2.175   0.649  0.00  0.00    +0.004 C 
BRANCH  10  11
ATOM     11  C   UNL     1      -6.020  -1.030   0.706  0.00  0.00    +0.000 C 
BRANCH  11  13
ATOM     12  C   UNL     1      -7.082   0.783   2.105  0.00  0.00    +0.004 C 
ATOM     13  C   UNL     1      -6.005  -0.297   2.055  0.00  0.00    -0.003 C 
ENDBRANCH  11  13
ENDBRANCH  10  11
ENDBRANCH   9  10
ENDBRANCH   7   9
ENDBRANCH   6   8
ENDBRANCH   4   6
ENDBRANCH   3   5
ENDBRANCH   1   3
BRANCH   2  14
ATOM     14  C   UNL     1       2.055   0.006  -0.201  0.00  0.00    +0.027 C 
BRANCH  14  15
ATOM     15  C   UNL     1       3.085  -0.867   0.533  0.00  0.00    +0.004 C 
BRANCH  15  16
ATOM     16  C   UNL     1       3.767  -1.885  -0.402  0.00  0.00    +0.000 C 
BRANCH  16  17
ATOM     17  C   UNL     1       4.877  -1.272  -1.277  0.00  0.00    +0.001 C 
BRANCH  17  18
ATOM     18  C   UNL     1       6.193  -1.086  -0.507  0.00  0.00    +0.011 C 
BRANCH  18  19
ATOM     19  C   UNL     1       7.265  -0.449  -1.398  0.00  0.00    +0.120 C 
BRANCH  19  20
ATOM     20  C   UNL     1       8.558  -0.309  -0.653  0.00  0.00    +0.305 C 
ATOM     21  O   UNL     1       9.510  -1.096  -0.893  0.00  0.00    -0.251 OA
BRANCH  20  22
ATOM     22  O   UNL     1       8.707   0.669   0.327  0.00  0.00    -0.481 OA
ATOM     23  H   UNL     1       7.951   1.306   0.551  0.00  0.00    +0.295 HD
ENDBRANCH  20  22
ENDBRANCH  19  20
ENDBRANCH  18  19
ENDBRANCH  17  18
ENDBRANCH  16  17
ENDBRANCH  15  16
ENDBRANCH  14  15
ENDBRANCH   2  14
TORSDOF 16
