REMARK  Name = 
REMARK  7 active torsions:
REMARK  status: ('A' for Active; 'I' for Inactive)
REMARK    1  A    between atoms: N_9  and  C_10
REMARK    2  A    between atoms: C_10  and  O_11
REMARK    3  A    between atoms: O_11  and  C_12
REMARK    4  A    between atoms: C_12  and  C_13
REMARK    5  A    between atoms: C_12  and  C_15
REMARK    6  A    between atoms: C_13  and  O_14
REMARK    7  A    between atoms: C_15  and  O_16
REMARK                            x       y       z     vdW  Elec       q    Type
REMARK                         _______ _______ _______ _____ _____    ______ ____
ROOT
ATOM      1  N   UNL     1       3.534   1.196   1.615  0.00  0.00    -0.329 N 
ATOM      2  C   UNL     1       2.981   0.185   0.772  0.00  0.00    +0.195 A 
ATOM      3  N   UNL     1       3.528  -1.074   0.774  0.00  0.00    -0.176 NA
ATOM      4  C   UNL     1       3.028  -2.068  -0.016  0.00  0.00    +0.302 A 
ATOM      5  O   UNL     1       3.539  -3.218  -0.002  0.00  0.00    -0.263 OA
ATOM      6  C   UNL     1       1.945  -1.768  -0.828  0.00  0.00    +0.172 A 
ATOM      7  C   UNL     1       1.417  -0.522  -0.819  0.00  0.00    +0.148 A 
ATOM      8  N   UNL     1       1.910   0.471  -0.034  0.00  0.00    -0.312 N 
ATOM      9  N   UNL     1       0.379  -0.475  -1.669  0.00  0.00    -0.292 N 
ATOM     10  C   UNL     1       0.312  -1.735  -2.171  0.00  0.00    +0.203 A 
ATOM     11  N   UNL     1       1.269  -2.567  -1.675  0.00  0.00    -0.229 NA
ATOM     12  H   UNL     1       4.350   0.981   2.229  0.00  0.00    +0.145 HD
ATOM     13  H   UNL     1       3.131   2.159   1.628  0.00  0.00    +0.145 HD
ATOM     14  H   UNL     1       1.492   1.427  -0.040  0.00  0.00    +0.170 HD
ENDROOT
BRANCH   9  15
ATOM     15  C   UNL     1      -0.544   0.624  -1.952  0.00  0.00    +0.287 C 
BRANCH  15  16
ATOM     16  O   UNL     1      -1.822   0.347  -1.412  0.00  0.00    -0.351 OA
BRANCH  16  17
ATOM     17  C   UNL     1      -1.849   0.527  -0.004  0.00  0.00    +0.171 C 
BRANCH  17  18
ATOM     18  C   UNL     1      -2.193  -0.816   0.651  0.00  0.00    +0.189 C 
BRANCH  18  19
ATOM     19  O   UNL     1      -2.132  -0.706   2.047  0.00  0.00    -0.392 OA
ATOM     20  H   UNL     1      -2.366  -1.601   2.405  0.00  0.00    +0.210 HD
ENDBRANCH  18  19
ENDBRANCH  17  18
BRANCH  17  21
ATOM     21  C   UNL     1      -2.905   1.588   0.340  0.00  0.00    +0.189 C 
BRANCH  21  22
ATOM     22  O   UNL     1      -2.536   2.832  -0.191  0.00  0.00    -0.392 OA
ATOM     23  H   UNL     1      -2.796   2.824  -1.149  0.00  0.00    +0.210 HD
ENDBRANCH  21  22
ENDBRANCH  17  21
ENDBRANCH  16  17
ENDBRANCH  15  16
ENDBRANCH   9  15
TORSDOF 7
