REMARK  Name = 
REMARK  7 active torsions:
REMARK  status: ('A' for Active; 'I' for Inactive)
REMARK    1  A    between atoms: C_1  and  O_2
REMARK    2  A    between atoms: O_2  and  C_3
REMARK    3  A    between atoms: N_5  and  C_25
REMARK    4  A    between atoms: C_7  and  C_8
REMARK    5  A    between atoms: C_8  and  O_9
REMARK    6  A    between atoms: C_17  and  N_18
REMARK    7  A    between atoms: C_22  and  C_23
REMARK                            x       y       z     vdW  Elec       q    Type
REMARK                         _______ _______ _______ _____ _____    ______ ____
ROOT
ATOM      1  C   UNL     1      -0.379  -0.136  -0.140  0.00  0.00    +0.168 A 
ATOM      2  C   UNL     1      -1.701   0.404  -0.229  0.00  0.00    +0.097 A 
ATOM      3  N   UNL     1      -2.839  -0.384  -0.168  0.00  0.00    -0.340 N 
ATOM      4  C   UNL     1      -4.061   0.135  -0.501  0.00  0.00    +0.105 A 
ATOM      5  C   UNL     1      -4.241   1.500  -0.754  0.00  0.00    +0.122 A 
ATOM      6  C   UNL     1      -3.123   2.345  -0.676  0.00  0.00    +0.204 A 
ATOM      7  O   UNL     1      -3.258   3.589  -0.847  0.00  0.00    -0.286 OA
ATOM      8  C   UNL     1      -1.849   1.805  -0.421  0.00  0.00    +0.052 A 
ATOM      9  C   UNL     1      -0.726   2.644  -0.363  0.00  0.00    +0.054 A 
ATOM     10  C   UNL     1       0.539   2.124  -0.136  0.00  0.00    +0.149 A 
ATOM     11  F   UNL     1       1.583   2.979   0.000  0.00  0.00    -0.203 F 
ATOM     12  C   UNL     1       0.733   0.741  -0.037  0.00  0.00    +0.110 A 
ENDROOT
BRANCH  12  13
ATOM     13  N   UNL     1       2.048   0.247   0.275  0.00  0.00    -0.322 N 
ATOM     14  C   UNL     1       2.395   0.099   1.692  0.00  0.00    +0.120 C 
ATOM     15  C   UNL     1       3.595  -0.842   1.868  0.00  0.00    +0.100 C 
ATOM     16  N   UNL     1       4.704  -0.473   0.979  0.00  0.00    -0.311 NA
ATOM     17  C   UNL     1       4.281  -0.528  -0.430  0.00  0.00    +0.068 C 
ATOM     18  C   UNL     1       5.473  -0.228  -1.342  0.00  0.00    +0.025 C 
ATOM     19  C   UNL     1       3.132   0.462  -0.690  0.00  0.00    +0.123 C 
ATOM     20  H   UNL     1       5.010   0.501   1.214  0.00  0.00    +0.122 HD
ENDBRANCH  12  13
BRANCH   3  21
ATOM     21  C   UNL     1      -2.814  -1.807   0.224  0.00  0.00    +0.088 C 
ATOM     22  C   UNL     1      -3.805  -2.188   1.325  0.00  0.00    +0.027 C 
ATOM     23  C   UNL     1      -2.332  -2.058   1.651  0.00  0.00    +0.027 C 
ENDBRANCH   3  21
BRANCH   1  25
ATOM     24  C   UNL     1       0.904  -2.213  -0.761  0.00  0.00    +0.277 C 
ATOM     25  O   UNL     1      -0.208  -1.529  -0.195  0.00  0.00    -0.491 OA
ENDBRANCH   1  25
BRANCH   5  26
ATOM     26  C   UNL     1      -5.601   2.016  -1.074  0.00  0.00    +0.342 C 
ATOM     27  O   UNL     1      -6.591   1.235  -1.084  0.00  0.00    -0.245 OA
BRANCH  26  28
ATOM     28  O   UNL     1      -5.804   3.361  -1.371  0.00  0.00    -0.477 OA
ATOM     29  H   UNL     1      -6.729   3.713  -1.591  0.00  0.00    +0.295 HD
ENDBRANCH  26  28
ENDBRANCH   5  26
TORSDOF 5
