REMARK  Name = 
REMARK  8 active torsions:
REMARK  status: ('A' for Active; 'I' for Inactive)
REMARK    1  A    between atoms: C_1  and  O_2
REMARK    2  A    between atoms: O_2  and  C_3
REMARK    3  A    between atoms: C_4  and  O_5
REMARK    4  A    between atoms: O_5  and  C_6
REMARK    5  A    between atoms: C_6  and  C_7
REMARK    6  A    between atoms: C_7  and  C_8
REMARK    7  A    between atoms: C_8  and  N_9
REMARK    8  A    between atoms: N_18  and  C_19
REMARK                            x       y       z     vdW  Elec       q    Type
REMARK                         _______ _______ _______ _____ _____    ______ ____
ROOT
ATOM      1  C   UNL     1      -0.218  -2.682   0.039  0.00  0.00    +0.164 A 
ATOM      2  C   UNL     1      -0.269  -1.286  -0.085  0.00  0.00    +0.163 A 
ATOM      3  C   UNL     1      -1.489  -0.608   0.108  0.00  0.00    +0.062 A 
ATOM      4  C   UNL     1      -2.658  -1.320   0.434  0.00  0.00    +0.044 A 
ATOM      5  C   UNL     1      -3.908  -0.694   0.638  0.00  0.00    +0.134 A 
ATOM      6  N   UNL     1      -4.044   0.738   0.619  0.00  0.00    -0.299 N 
ATOM      7  N   UNL     1      -4.998  -1.461   0.916  0.00  0.00    -0.220 NA
ATOM      8  C   UNL     1      -4.916  -2.812   0.999  0.00  0.00    +0.223 A 
ATOM      9  N   UNL     1      -3.725  -3.434   0.815  0.00  0.00    -0.235 NA
ATOM     10  C   UNL     1      -2.601  -2.727   0.537  0.00  0.00    +0.080 A 
ATOM     11  C   UNL     1      -1.390  -3.398   0.347  0.00  0.00    +0.078 A 
ATOM     12  H   UNL     1      -3.286   1.313   1.049  0.00  0.00    +0.154 HD
ENDROOT
BRANCH   6  13
ATOM     13  C   UNL     1      -5.246   1.412   0.205  0.00  0.00    +0.034 A 
ATOM     14  C   UNL     1      -5.538   2.684   0.723  0.00  0.00    +0.046 A 
ATOM     15  C   UNL     1      -6.690   3.368   0.319  0.00  0.00    +0.078 A 
ATOM     16 CL   UNL     1      -7.043   4.951   0.990  0.00  0.00    -0.081 Cl
ATOM     17  C   UNL     1      -7.554   2.788  -0.619  0.00  0.00    +0.142 A 
ATOM     18  F   UNL     1      -8.672   3.444  -1.019  0.00  0.00    -0.204 F 
ATOM     19  C   UNL     1      -7.260   1.532  -1.154  0.00  0.00    +0.041 A 
ATOM     20  C   UNL     1      -6.109   0.847  -0.751  0.00  0.00    +0.026 A 
ENDBRANCH   6  13
BRANCH   1  22
ATOM     21  C   UNL     1       1.220  -4.728  -0.060  0.00  0.00    +0.277 C 
ATOM     22  O   UNL     1       1.016  -3.322  -0.155  0.00  0.00    -0.491 OA
ENDBRANCH   1  22
BRANCH   2  23
ATOM     23  O   UNL     1       0.918  -0.607  -0.404  0.00  0.00    -0.488 OA
BRANCH  23  24
ATOM     24  C   UNL     1       1.034   0.807  -0.545  0.00  0.00    +0.230 C 
BRANCH  24  25
ATOM     25  C   UNL     1       2.478   1.180  -0.879  0.00  0.00    +0.056 C 
BRANCH  25  26
ATOM     26  C   UNL     1       3.442   0.795   0.255  0.00  0.00    +0.088 C 
BRANCH  26  27
ATOM     27  N   UNL     1       4.800   1.324   0.005  0.00  0.00    -0.298 NA
ATOM     28  C   UNL     1       5.482   0.582  -1.081  0.00  0.00    +0.112 C 
ATOM     29  C   UNL     1       6.998   0.861  -1.088  0.00  0.00    +0.175 C 
ATOM     30  O   UNL     1       7.287   2.050  -0.383  0.00  0.00    -0.377 OA
ATOM     31  C   UNL     1       7.004   1.871   0.994  0.00  0.00    +0.175 C 
ATOM     32  C   UNL     1       5.604   1.268   1.240  0.00  0.00    +0.112 C 
ENDBRANCH  26  27
ENDBRANCH  25  26
ENDBRANCH  24  25
ENDBRANCH  23  24
ENDBRANCH   2  23
TORSDOF 7
