REMARK  Name = 
REMARK  4 active torsions:
REMARK  status: ('A' for Active; 'I' for Inactive)
REMARK    1  A    between atoms: N_6  and  C_9
REMARK    2  A    between atoms: C_11  and  C_12
REMARK    3  A    between atoms: C_12  and  O_13
REMARK    4  A    between atoms: C_14  and  O_15
REMARK                            x       y       z     vdW  Elec       q    Type
REMARK                         _______ _______ _______ _____ _____    ______ ____
ROOT
ATOM      1  C   UNL     1      -0.350   0.782   0.556  0.00  0.00    +0.296 C 
ATOM      2  O   UNL     1      -1.069  -0.296   1.113  0.00  0.00    -0.342 OA
ATOM      3  C   UNL     1      -2.410  -0.182   0.680  0.00  0.00    +0.181 C 
ATOM      4  C   UNL     1      -2.507   0.900  -0.412  0.00  0.00    +0.219 C 
ATOM      5  C   UNL     1      -1.063   1.227  -0.714  0.00  0.00    +0.321 C 
ATOM      6  F   UNL     1      -0.868   2.577  -0.957  0.00  0.00    -0.198 F 
ATOM      7  F   UNL     1      -0.634   0.494  -1.810  0.00  0.00    -0.198 F 
ENDROOT
BRANCH   1  13
ATOM      8  N   UNL     1       5.033  -0.596  -0.563  0.00  0.00    -0.343 N 
ATOM      9  C   UNL     1       3.672  -0.270  -0.281  0.00  0.00    +0.123 A 
ATOM     10  N   UNL     1       3.338   0.999   0.063  0.00  0.00    -0.178 NA
ATOM     11  C   UNL     1       2.054   1.346   0.339  0.00  0.00    +0.352 A 
ATOM     12  O   UNL     1       1.798   2.543   0.640  0.00  0.00    -0.244 OA
ATOM     13  N   UNL     1       1.054   0.404   0.286  0.00  0.00    -0.267 N 
ATOM     14  C   UNL     1       1.363  -0.879  -0.080  0.00  0.00    +0.097 A 
ATOM     15  C   UNL     1       2.678  -1.242  -0.364  0.00  0.00    +0.061 A 
ATOM     16  H   UNL     1       5.308  -1.567  -0.832  0.00  0.00    +0.144 HD
ATOM     17  H   UNL     1       5.773   0.138  -0.502  0.00  0.00    +0.144 HD
ENDBRANCH   1  13
BRANCH   4  18
ATOM     18  O   UNL     1      -3.213   2.030   0.050  0.00  0.00    -0.383 OA
ATOM     19  H   UNL     1      -2.757   2.371   0.864  0.00  0.00    +0.210 HD
ENDBRANCH   4  18
BRANCH   3  20
ATOM     20  C   UNL     1      -2.909  -1.552   0.197  0.00  0.00    +0.190 C 
BRANCH  20  21
ATOM     21  O   UNL     1      -2.067  -2.074  -0.797  0.00  0.00    -0.392 OA
ATOM     22  H   UNL     1      -2.428  -1.774  -1.671  0.00  0.00    +0.210 HD
ENDBRANCH  20  21
ENDBRANCH   3  20
TORSDOF 4
