REMARK  Name = 
REMARK  11 active torsions:
REMARK  status: ('A' for Active; 'I' for Inactive)
REMARK    1  A    between atoms: C_1  and  C_2
REMARK    2  A    between atoms: C_4  and  O_5
REMARK    3  A    between atoms: O_5  and  C_6
REMARK    4  A    between atoms: C_6  and  C_7
REMARK    5  A    between atoms: C_7  and  C_8
REMARK    6  A    between atoms: C_8  and  C_9
REMARK    7  A    between atoms: C_9  and  C_10
REMARK    8  A    between atoms: C_9  and  C_11
REMARK    9  A    between atoms: C_9  and  C_12
REMARK   10  A    between atoms: C_12  and  O_13
REMARK   11  A    between atoms: C_15  and  C_16
REMARK                            x       y       z     vdW  Elec       q    Type
REMARK                         _______ _______ _______ _____ _____    ______ ____
ROOT
ATOM      1  C   UNL     1       0.034  -0.193  -0.444  0.00  0.00    +0.229 C 
ENDROOT
BRANCH   1   2
ATOM      2  O   UNL     1       1.119   0.120   0.425  0.00  0.00    -0.492 OA
BRANCH   2   6
ATOM      3  C   UNL     1       4.673  -0.731  -2.953  0.00  0.00    +0.044 C 
ATOM      4  C   UNL     1       4.247  -0.364  -1.562  0.00  0.00    -0.047 A 
ATOM      5  C   UNL     1       2.885  -0.313  -1.231  0.00  0.00    +0.049 A 
ATOM      6  C   UNL     1       2.475   0.066   0.063  0.00  0.00    +0.124 A 
ATOM      7  C   UNL     1       3.447   0.404   1.024  0.00  0.00    -0.009 A 
ATOM      8  C   UNL     1       3.030   0.819   2.407  0.00  0.00    +0.047 C 
ATOM      9  C   UNL     1       4.807   0.374   0.679  0.00  0.00    +0.007 A 
ATOM     10  C   UNL     1       5.204  -0.002  -0.605  0.00  0.00    +0.004 A 
ENDBRANCH   2   6
ENDBRANCH   1   2
BRANCH   1  11
ATOM     11  C   UNL     1      -1.284  -0.019   0.310  0.00  0.00    +0.042 C 
BRANCH  11  12
ATOM     12  C   UNL     1      -2.486  -0.367  -0.589  0.00  0.00    +0.021 C 
BRANCH  12  13
ATOM     13  C   UNL     1      -3.874  -0.089   0.059  0.00  0.00    +0.062 C 
ATOM     14  C   UNL     1      -4.063  -0.958   1.324  0.00  0.00    +0.022 C 
ATOM     15  C   UNL     1      -4.974  -0.463  -0.953  0.00  0.00    +0.022 C 
BRANCH  13  16
ATOM     16  C   UNL     1      -4.024   1.385   0.395  0.00  0.00    +0.310 C 
ATOM     17  O   UNL     1      -3.728   2.260  -0.464  0.00  0.00    -0.250 OA
BRANCH  16  18
ATOM     18  O   UNL     1      -4.532   1.786   1.629  0.00  0.00    -0.480 OA
ATOM     19  H   UNL     1      -4.647   2.768   1.849  0.00  0.00    +0.295 HD
ENDBRANCH  16  18
ENDBRANCH  13  16
ENDBRANCH  12  13
ENDBRANCH  11  12
ENDBRANCH   1  11
TORSDOF 7
