REMARK  Name = 
REMARK  7 active torsions:
REMARK  status: ('A' for Active; 'I' for Inactive)
REMARK    1  A    between atoms: C_1  and  O_2
REMARK    2  A    between atoms: O_2  and  N_3
REMARK    3  A    between atoms: C_8  and  C_9
REMARK    4  A    between atoms: C_9  and  N_10
REMARK    5  A    between atoms: C_20  and  C_26
REMARK    6  A    between atoms: N_22  and  C_23
REMARK    7  A    between atoms: C_26  and  O_27
REMARK                            x       y       z     vdW  Elec       q    Type
REMARK                         _______ _______ _______ _____ _____    ______ ____
ROOT
ATOM      1  N   UNL     1      -4.328  -0.829  -0.609  0.00  0.00    -0.092 NA
ATOM      2  C   UNL     1      -3.453   0.105  -0.403  0.00  0.00    +0.080 C 
ATOM      3  C   UNL     1      -2.000  -0.146  -0.264  0.00  0.00    +0.161 C 
ATOM      4  N   UNL     1      -1.413   1.184  -0.233  0.00  0.00    -0.307 N 
ATOM      5  C   UNL     1      -2.415   2.246  -0.335  0.00  0.00    +0.117 C 
ATOM      6  C   UNL     1      -3.793   1.558  -0.403  0.00  0.00    +0.069 C 
ATOM      7  C   UNL     1       0.012   1.383  -0.108  0.00  0.00    +0.159 A 
ATOM      8  N   UNL     1       0.814   0.294   0.041  0.00  0.00    -0.211 NA
ATOM      9  C   UNL     1       2.170   0.364   0.168  0.00  0.00    +0.147 A 
ATOM     10  C   UNL     1       2.789   1.632   0.145  0.00  0.00    +0.068 A 
ATOM     11  C   UNL     1       1.988   2.775  -0.009  0.00  0.00    +0.057 A 
ATOM     12  C   UNL     1       0.604   2.660  -0.137  0.00  0.00    +0.164 A 
ATOM     13  F   UNL     1      -0.127   3.791  -0.291  0.00  0.00    -0.202 F 
ATOM     14  C   UNL     1       4.183   1.724   0.275  0.00  0.00    +0.205 A 
ATOM     15  O   UNL     1       4.743   2.855   0.255  0.00  0.00    -0.286 OA
ATOM     16  C   UNL     1       4.947   0.552   0.426  0.00  0.00    +0.122 A 
ATOM     17  C   UNL     1       4.283  -0.686   0.443  0.00  0.00    +0.106 A 
ATOM     18  N   UNL     1       2.916  -0.783   0.316  0.00  0.00    -0.328 N 
ENDROOT
BRANCH  18  19
ATOM     19  C   UNL     1       2.201  -2.092   0.332  0.00  0.00    +0.089 C 
ATOM     20  C   UNL     1       2.924  -3.282  -0.288  0.00  0.00    +0.027 C 
ATOM     21  C   UNL     1       2.776  -3.182   1.229  0.00  0.00    +0.027 C 
ENDBRANCH  18  19
BRANCH   1  23
ATOM     22  C   UNL     1      -4.942  -3.158  -0.875  0.00  0.00    +0.313 C 
ATOM     23  O   UNL     1      -3.965  -2.156  -0.652  0.00  0.00    -0.397 OA
ENDBRANCH   1  23
BRANCH  16  24
ATOM     24  C   UNL     1       6.429   0.588   0.569  0.00  0.00    +0.342 C 
ATOM     25  O   UNL     1       7.054   1.683   0.560  0.00  0.00    -0.245 OA
BRANCH  24  26
ATOM     26  O   UNL     1       7.147  -0.596   0.715  0.00  0.00    -0.477 OA
ATOM     27  H   UNL     1       8.156  -0.585   0.813  0.00  0.00    +0.295 HD
ENDBRANCH  24  26
ENDBRANCH  16  24
BRANCH   6  28
ATOM     28  C   UNL     1      -4.683   1.956   0.798  0.00  0.00    +0.088 C 
BRANCH  28  29
ATOM     29  N   UNL     1      -6.049   1.444   0.680  0.00  0.00    -0.329 NA
ATOM     30  H   UNL     1      -6.411   1.627  -0.284  0.00  0.00    +0.118 HD
ATOM     31  H   UNL     1      -6.047   0.411   0.840  0.00  0.00    +0.118 HD
ENDBRANCH  28  29
ENDBRANCH   6  28
TORSDOF 6
