REMARK  Name = 
REMARK  17 active torsions:
REMARK  status: ('A' for Active; 'I' for Inactive)
REMARK    1  A    between atoms: C_1  and  N_2
REMARK    2  A    between atoms: N_2  and  C_3
REMARK    3  A    between atoms: C_3  and  C_4
REMARK    4  A    between atoms: C_3  and  C_5
REMARK    5  A    between atoms: C_8  and  N_9
REMARK    6  A    between atoms: C_10  and  O_11
REMARK    7  A    between atoms: O_11  and  C_12
REMARK    8  A    between atoms: C_13  and  N_14
REMARK    9  A    between atoms: C_16  and  N_17
REMARK   10  A    between atoms: C_18  and  O_19
REMARK   11  A    between atoms: O_19  and  C_20
REMARK   12  A    between atoms: C_23  and  C_24
REMARK   13  A    between atoms: C_23  and  O_25
REMARK   14  A    between atoms: C_26  and  N_27
REMARK   15  A    between atoms: N_27  and  C_28
REMARK   16  A    between atoms: C_29  and  O_30
REMARK   17  A    between atoms: C_31  and  O_32
REMARK                            x       y       z     vdW  Elec       q    Type
REMARK                         _______ _______ _______ _____ _____    ______ ____
ROOT
ATOM      1  C   UNL     1       1.114  -1.910   1.365  0.00  0.00    +0.169 C 
ATOM      2  C   UNL     1       0.507  -3.246   1.845  0.00  0.00    +0.084 C 
ATOM      3  C   UNL     1      -0.509  -3.790   0.819  0.00  0.00    +0.042 C 
ATOM      4  C   UNL     1      -1.633  -2.773   0.534  0.00  0.00    +0.084 C 
ATOM      5  C   UNL     1      -1.030  -1.425   0.070  0.00  0.00    +0.169 C 
ATOM      6  C   UNL     1      -0.004  -0.876   1.088  0.00  0.00    +0.175 C 
ENDROOT
BRANCH   2   7
ATOM      7  N   UNL     1       1.576  -4.221   2.082  0.00  0.00    -0.325 NA
ATOM      8  H   UNL     1       2.032  -4.468   1.172  0.00  0.00    +0.119 HD
ATOM      9  H   UNL     1       1.152  -5.096   2.467  0.00  0.00    +0.119 HD
ENDBRANCH   2   7
BRANCH   4  10
ATOM     10  N   UNL     1      -2.482  -2.598   1.717  0.00  0.00    -0.325 NA
ATOM     11  H   UNL     1      -2.846  -3.535   2.009  0.00  0.00    +0.119 HD
ATOM     12  H   UNL     1      -3.326  -2.046   1.440  0.00  0.00    +0.119 HD
ENDBRANCH   4  10
BRANCH   6  13
ATOM     13  O   UNL     1      -0.658  -0.514   2.280  0.00  0.00    -0.387 OA
ATOM     14  H   UNL     1      -0.070   0.130   2.753  0.00  0.00    +0.210 HD
ENDBRANCH   6  13
BRANCH   1  15
ATOM     15  O   UNL     1       1.996  -1.434   2.371  0.00  0.00    -0.342 OA
BRANCH  15  20
ATOM     16  C   UNL     1       3.537   1.755   1.688  0.00  0.00    +0.138 C 
ATOM     17  C   UNL     1       4.865   1.552   2.450  0.00  0.00    +0.035 C 
ATOM     18  C   UNL     1       5.391   0.135   2.264  0.00  0.00    +0.026 C 
ATOM     19  C   UNL     1       4.293  -0.865   2.644  0.00  0.00    +0.107 C 
ATOM     20  C   UNL     1       2.997  -0.562   1.867  0.00  0.00    +0.268 C 
ATOM     21  O   UNL     1       2.571   0.780   2.079  0.00  0.00    -0.345 OA
BRANCH  19  22
ATOM     22  N   UNL     1       4.726  -2.242   2.391  0.00  0.00    -0.323 NA
ATOM     23  H   UNL     1       5.022  -2.335   1.391  0.00  0.00    +0.119 HD
ATOM     24  H   UNL     1       5.562  -2.444   2.985  0.00  0.00    +0.119 HD
ENDBRANCH  19  22
BRANCH  16  25
ATOM     25  C   UNL     1       3.672   1.884   0.132  0.00  0.00    +0.079 C 
ATOM     26  C   UNL     1       4.647   3.003  -0.264  0.00  0.00    +0.026 C 
BRANCH  25  28
ATOM     27  C   UNL     1       2.151   1.415  -1.715  0.00  0.00    +0.101 C 
ATOM     28  N   UNL     1       2.364   2.190  -0.490  0.00  0.00    -0.314 NA
ATOM     29  H   UNL     1       1.568   1.981   0.156  0.00  0.00    +0.122 HD
ENDBRANCH  25  28
ENDBRANCH  16  25
ENDBRANCH  15  20
ENDBRANCH   1  15
BRANCH   5  30
ATOM     30  O   UNL     1      -2.075  -0.481  -0.110  0.00  0.00    -0.341 OA
BRANCH  30  31
ATOM     31  C   UNL     1      -1.840   0.349  -1.238  0.00  0.00    +0.281 C 
ATOM     32  O   UNL     1      -2.160  -0.320  -2.448  0.00  0.00    -0.346 OA
ATOM     33  C   UNL     1      -3.523  -0.704  -2.474  0.00  0.00    +0.199 C 
ATOM     34  C   UNL     1      -4.469   0.523  -2.494  0.00  0.00    +0.104 C 
ATOM     35  C   UNL     1      -4.300   1.286  -3.830  0.00  0.00    +0.045 C 
ATOM     36  C   UNL     1      -4.148   1.410  -1.242  0.00  0.00    +0.121 C 
ATOM     37  C   UNL     1      -2.630   1.661  -1.108  0.00  0.00    +0.190 C 
BRANCH  36  38
ATOM     38  N   UNL     1      -4.848   2.712  -1.220  0.00  0.00    -0.311 NA
ATOM     39  C   UNL     1      -6.298   2.601  -1.039  0.00  0.00    +0.101 C 
ATOM     40  H   UNL     1      -4.641   3.276  -2.075  0.00  0.00    +0.122 HD
ENDBRANCH  36  38
BRANCH  34  41
ATOM     41  O   UNL     1      -5.796   0.060  -2.388  0.00  0.00    -0.385 OA
ATOM     42  H   UNL     1      -5.987  -0.521  -3.171  0.00  0.00    +0.210 HD
ENDBRANCH  34  41
BRANCH  37  43
ATOM     43  O   UNL     1      -2.343   2.245   0.138  0.00  0.00    -0.385 OA
ATOM     44  H   UNL     1      -2.496   3.221   0.043  0.00  0.00    +0.210 HD
ENDBRANCH  37  43
ENDBRANCH  30  31
ENDBRANCH   5  30
TORSDOF 13
