REMARK  Name = 
REMARK  10 active torsions:
REMARK  status: ('A' for Active; 'I' for Inactive)
REMARK    1  A    between atoms: C_1  and  N_2
REMARK    2  A    between atoms: N_2  and  C_3
REMARK    3  A    between atoms: N_2  and  C_4
REMARK    4  A    between atoms: C_7  and  C_10
REMARK    5  A    between atoms: C_10  and  C_11
REMARK    6  A    between atoms: C_14  and  N_17
REMARK    7  A    between atoms: N_17  and  C_18
REMARK    8  A    between atoms: N_17  and  C_19
REMARK    9  A    between atoms: N_26  and  C_27
REMARK   10  A    between atoms: N_26  and  C_28
REMARK                            x       y       z     vdW  Elec       q    Type
REMARK                         _______ _______ _______ _____ _____    ______ ____
ROOT
ATOM      1  C   UNL     1      -0.082  -0.154  -0.003  0.00  0.00    -0.004 C 
ATOM      2  C   UNL     1      -0.724  -1.354  -0.020  0.00  0.00    -0.017 C 
ATOM      3  C   UNL     1      -2.204  -1.445   0.089  0.00  0.00    +0.010 C 
ATOM      4  C   UNL     1      -2.834  -2.622   0.073  0.00  0.00    +0.026 C 
ATOM      5  C   UNL     1      -2.088  -3.909  -0.057  0.00  0.00    +0.037 C 
ATOM      6  C   UNL     1      -0.602  -3.811  -0.168  0.00  0.00    +0.026 C 
ATOM      7  C   UNL     1       0.025  -2.632  -0.149  0.00  0.00    +0.010 C 
ATOM      8  N   UNL     1      -2.712  -5.076  -0.074  0.00  0.00    -0.377 N 
ATOM      9  C   UNL     1      -1.964  -6.340  -0.201  0.00  0.00    +0.142 C 
ATOM     10  C   UNL     1      -4.179  -5.160   0.033  0.00  0.00    +0.142 C 
ENDROOT
BRANCH   1  14
ATOM     11  C   UNL     1      -2.157   3.619  -0.259  0.00  0.00    +0.029 A 
ATOM     12  C   UNL     1      -1.338   3.314   0.849  0.00  0.00    +0.024 A 
ATOM     13  C   UNL     1      -0.674   2.087   0.932  0.00  0.00    +0.010 A 
ATOM     14  C   UNL     1      -0.820   1.131  -0.081  0.00  0.00    -0.017 A 
ATOM     15  C   UNL     1      -1.616   1.429  -1.195  0.00  0.00    +0.010 A 
ATOM     16  C   UNL     1      -2.282   2.655  -1.282  0.00  0.00    +0.024 A 
BRANCH  11  18
ATOM     17  C   UNL     1      -2.393   6.045   0.438  0.00  0.00    +0.129 C 
ATOM     18  N   UNL     1      -2.849   4.892  -0.347  0.00  0.00    -0.336 N 
ATOM     19  C   UNL     1      -4.017   5.048  -1.223  0.00  0.00    +0.129 C 
ENDBRANCH  11  18
ENDBRANCH   1  14
BRANCH   1  20
ATOM     20  C   UNL     1       1.395  -0.055   0.096  0.00  0.00    -0.017 A 
ATOM     21  C   UNL     1       2.121   0.621  -0.893  0.00  0.00    +0.010 A 
ATOM     22  C   UNL     1       3.509   0.749  -0.789  0.00  0.00    +0.024 A 
ATOM     23  C   UNL     1       4.204   0.212   0.315  0.00  0.00    +0.029 A 
ATOM     24  C   UNL     1       3.459  -0.451   1.313  0.00  0.00    +0.024 A 
ATOM     25  C   UNL     1       2.072  -0.576   1.207  0.00  0.00    +0.010 A 
BRANCH  23  26
ATOM     26  N   UNL     1       5.645   0.344   0.424  0.00  0.00    -0.336 N 
ATOM     27  C   UNL     1       6.413  -0.560   1.290  0.00  0.00    +0.129 C 
ATOM     28  C   UNL     1       6.360   1.381  -0.330  0.00  0.00    +0.129 C 
ENDBRANCH  23  26
ENDBRANCH   1  20
TORSDOF 4
