REMARK  Name = 
REMARK  4 active torsions:
REMARK  status: ('A' for Active; 'I' for Inactive)
REMARK    1  A    between atoms: C_1  and  C_2
REMARK    2  A    between atoms: C_2  and  C_3
REMARK    3  A    between atoms: C_20  and  O_21
REMARK    4  A    between atoms: C_20  and  C_22
REMARK                            x       y       z     vdW  Elec       q    Type
REMARK                         _______ _______ _______ _____ _____    ______ ____
ROOT
ATOM      1  C   UNL     1       2.110   0.296   0.217  0.00  0.00    +0.021 C 
ATOM      2  C   UNL     1       1.418   1.404  -0.618  0.00  0.00    +0.012 C 
ATOM      3  C   UNL     1      -0.078   1.526  -0.230  0.00  0.00    +0.005 C 
ATOM      4  C   UNL     1      -0.862   0.179  -0.342  0.00  0.00    -0.000 C 
ATOM      5  C   UNL     1      -0.129  -1.004   0.371  0.00  0.00    +0.000 C 
ATOM      6  C   UNL     1      -0.842  -2.319   0.011  0.00  0.00    +0.009 C 
ATOM      7  C   UNL     1      -2.282  -2.311   0.525  0.00  0.00    +0.031 C 
ATOM      8  C   UNL     1      -3.029  -1.066   0.103  0.00  0.00    -0.063 C 
ATOM      9  C   UNL     1      -4.355  -1.155  -0.099  0.00  0.00    +0.045 C 
ATOM     10  C   UNL     1      -5.184   0.035  -0.329  0.00  0.00    +0.156 C 
ATOM     11  O   UNL     1      -6.413  -0.095  -0.575  0.00  0.00    -0.293 OA
ATOM     12  C   UNL     1      -4.591   1.401  -0.195  0.00  0.00    +0.079 C 
ATOM     13  C   UNL     1      -3.116   1.379  -0.596  0.00  0.00    +0.016 C 
ATOM     14  C   UNL     1      -2.326   0.293   0.180  0.00  0.00    +0.019 C 
ATOM     15  C   UNL     1       1.339  -1.011  -0.096  0.00  0.00    +0.025 C 
ATOM     16  C   UNL     1       2.285  -2.071   0.346  0.00  0.00    -0.023 C 
ATOM     17  C   UNL     1       3.531  -1.620   0.200  0.00  0.00    +0.017 C 
ATOM     18  C   UNL     1       3.559  -0.160  -0.198  0.00  0.00    +0.151 C 
ENDROOT
BRANCH   1  20
ATOM     19  C   UNL     1       2.578   2.081   2.105  0.00  0.00    +0.004 C 
ATOM     20  C   UNL     1       2.096   0.662   1.761  0.00  0.00    +0.008 C 
ENDBRANCH   1  20
BRANCH  18  21
ATOM     21  O   UNL     1       4.568   0.525   0.503  0.00  0.00    -0.372 OA
ATOM     22  H   UNL     1       5.436   0.087   0.297  0.00  0.00    +0.212 HD
ENDBRANCH  18  21
BRANCH  18  23
ATOM     23  C   UNL     1       3.808  -0.053  -1.653  0.00  0.00    -0.066 C 
ATOM     24  C   UNL     1       4.012   0.034  -2.838  0.00  0.00    +0.007 C 
ENDBRANCH  18  23
TORSDOF 3
