REMARK  Name = 
REMARK  4 active torsions:
REMARK  status: ('A' for Active; 'I' for Inactive)
REMARK    1  A    between atoms: C_1  and  C_2
REMARK    2  A    between atoms: C_5  and  S_8
REMARK    3  A    between atoms: S_8  and  N_11
REMARK    4  A    between atoms: N_14  and  N_15
REMARK                            x       y       z     vdW  Elec       q    Type
REMARK                         _______ _______ _______ _____ _____    ______ ____
ROOT
ATOM      1  N   UNL     1       1.072  -2.628   0.767  0.00  0.00    -0.168 N 
ATOM      2  C   UNL     1       0.146  -1.667   0.252  0.00  0.00    +0.333 C 
ATOM      3  O   UNL     1       0.387  -1.072  -0.833  0.00  0.00    -0.250 OA
ATOM      4  N   UNL     1      -1.056  -1.380   0.970  0.00  0.00    -0.231 N 
ATOM      5  H   UNL     1       0.859  -3.126   1.659  0.00  0.00    +0.178 HD
ATOM      6  H   UNL     1      -1.241  -1.877   1.873  0.00  0.00    +0.171 HD
ENDROOT
BRANCH   4   7
ATOM      7  N   UNL     1      -1.976  -0.442   0.461  0.00  0.00    -0.225 NA
ATOM      8  C   UNL     1      -2.197   0.621   1.443  0.00  0.00    +0.109 C 
ATOM      9  C   UNL     1      -3.619   1.136   1.210  0.00  0.00    +0.009 C 
ATOM     10  C   UNL     1      -3.680   2.387   0.324  0.00  0.00    +0.005 C 
ATOM     11  C   UNL     1      -4.810   2.134  -0.654  0.00  0.00    +0.001 C 
ATOM     12  C   UNL     1      -4.794   0.635  -0.883  0.00  0.00    +0.005 C 
ATOM     13  C   UNL     1      -4.328   0.025   0.444  0.00  0.00    +0.009 C 
ATOM     14  C   UNL     1      -3.281  -1.078   0.274  0.00  0.00    +0.109 C 
ENDBRANCH   4   7
BRANCH   1  15
ATOM     15  S   UNL     1       2.564  -2.979  -0.041  0.00  0.00    +0.076 S 
ATOM     16  O   UNL     1       2.266  -3.543  -1.402  0.00  0.00    -0.150 OA
ATOM     17  O   UNL     1       3.335  -3.998   0.749  0.00  0.00    -0.150 OA
BRANCH  15  22
ATOM     18  C   UNL     1       5.875   2.094  -0.426  0.00  0.00    +0.044 C 
ATOM     19  C   UNL     1       5.029   0.859  -0.340  0.00  0.00    -0.050 A 
ATOM     20  C   UNL     1       4.620   0.369   0.910  0.00  0.00    +0.005 A 
ATOM     21  C   UNL     1       3.862  -0.803   0.994  0.00  0.00    +0.029 A 
ATOM     22  C   UNL     1       3.522  -1.508  -0.168  0.00  0.00    +0.109 A 
ATOM     23  C   UNL     1       3.944  -1.031  -1.416  0.00  0.00    +0.029 A 
ATOM     24  C   UNL     1       4.698   0.144  -1.501  0.00  0.00    +0.005 A 
ENDBRANCH  15  22
ENDBRANCH   1  15
TORSDOF 3
