REMARK  Name = 
REMARK  10 active torsions:
REMARK  status: ('A' for Active; 'I' for Inactive)
REMARK    1  A    between atoms: C_1  and  C_2
REMARK    2  A    between atoms: C_2  and  C_3
REMARK    3  A    between atoms: C_4  and  C_5
REMARK    4  A    between atoms: N_10  and  C_11
REMARK    5  A    between atoms: C_11  and  C_12
REMARK    6  A    between atoms: C_12  and  C_13
REMARK    7  A    between atoms: C_16  and  S_19
REMARK    8  A    between atoms: S_19  and  N_22
REMARK    9  A    between atoms: N_25  and  C_26
REMARK   10  A    between atoms: C_29  and  C_30
REMARK                            x       y       z     vdW  Elec       q    Type
REMARK                         _______ _______ _______ _____ _____    ______ ____
ROOT
ATOM      1  C   UNL     1      -1.058  -2.273   0.197  0.00  0.00    -0.046 A 
ATOM      2  C   UNL     1      -0.952  -2.723  -1.129  0.00  0.00    +0.005 A 
ATOM      3  C   UNL     1       0.252  -3.258  -1.598  0.00  0.00    +0.029 A 
ATOM      4  C   UNL     1       1.363  -3.347  -0.749  0.00  0.00    +0.109 A 
ATOM      5  C   UNL     1       1.266  -2.880   0.569  0.00  0.00    +0.029 A 
ATOM      6  C   UNL     1       0.064  -2.341   1.038  0.00  0.00    +0.005 A 
ENDROOT
BRANCH   4   7
ATOM      7  S   UNL     1       2.882  -4.012  -1.342  0.00  0.00    +0.076 S 
ATOM      8  O   UNL     1       2.611  -4.965  -2.473  0.00  0.00    -0.150 OA
ATOM      9  O   UNL     1       3.579  -4.771  -0.247  0.00  0.00    -0.150 OA
BRANCH   7  10
ATOM     10  N   UNL     1       3.897  -2.728  -1.912  0.00  0.00    -0.169 N 
ATOM     11  C   UNL     1       4.633  -1.883  -1.020  0.00  0.00    +0.319 C 
ATOM     12  O   UNL     1       4.622  -2.111   0.220  0.00  0.00    -0.251 OA
ATOM     13  N   UNL     1       5.379  -0.776  -1.545  0.00  0.00    -0.295 N 
ATOM     14  H   UNL     1       3.930  -2.544  -2.939  0.00  0.00    +0.178 HD
ATOM     15  H   UNL     1       5.402  -0.644  -2.582  0.00  0.00    +0.151 HD
BRANCH  13  16
ATOM     16  C   UNL     1       6.221   0.088  -0.714  0.00  0.00    +0.074 C 
ATOM     17  C   UNL     1       5.947   1.561  -1.057  0.00  0.00    +0.022 C 
ATOM     18  C   UNL     1       6.854   2.497  -0.245  0.00  0.00    +0.005 C 
ATOM     19  C   UNL     1       8.352   2.160  -0.413  0.00  0.00    -0.014 C 
ATOM     20  C   UNL     1       8.891   2.592  -1.786  0.00  0.00    +0.007 C 
ATOM     21  C   UNL     1       8.619   0.666  -0.131  0.00  0.00    +0.005 C 
ATOM     22  C   UNL     1       7.701  -0.259  -0.942  0.00  0.00    +0.022 C 
ENDBRANCH  13  16
ENDBRANCH   7  10
ENDBRANCH   4   7
BRANCH   1  23
ATOM     23  C   UNL     1      -2.348  -1.674   0.692  0.00  0.00    +0.054 C 
BRANCH  23  24
ATOM     24  C   UNL     1      -2.435  -0.192   0.315  0.00  0.00    +0.110 C 
BRANCH  24  32
ATOM     25  C   UNL     1      -8.383   1.317   1.204  0.00  0.00    +0.015 C 
ATOM     26  C   UNL     1      -7.658   1.911   2.156  0.00  0.00    -0.047 C 
ATOM     27  C   UNL     1      -8.209   2.789   3.238  0.00  0.00    +0.041 C 
ATOM     28  C   UNL     1      -6.191   1.596   2.007  0.00  0.00    +0.149 C 
ATOM     29  N   UNL     1      -6.135   0.740   0.825  0.00  0.00    -0.218 N 
ATOM     30  C   UNL     1      -4.953   0.153   0.256  0.00  0.00    +0.309 C 
ATOM     31  O   UNL     1      -5.048  -0.579  -0.767  0.00  0.00    -0.252 OA
ATOM     32  N   UNL     1      -3.664   0.398   0.843  0.00  0.00    -0.299 N 
ATOM     33  C   UNL     1      -7.466   0.591   0.352  0.00  0.00    +0.250 C 
ATOM     34  O   UNL     1      -7.789  -0.076  -0.667  0.00  0.00    -0.270 OA
ATOM     35  H   UNL     1      -3.581   1.065   1.643  0.00  0.00    +0.150 HD
BRANCH  25  37
ATOM     36  C   UNL     1     -10.159   2.636   0.055  0.00  0.00    +0.009 C 
ATOM     37  C   UNL     1      -9.863   1.456   0.975  0.00  0.00    +0.037 C 
ENDBRANCH  25  37
ENDBRANCH  24  32
ENDBRANCH  23  24
ENDBRANCH   1  23
TORSDOF 7
