REMARK  Name = 
REMARK  8 active torsions:
REMARK  status: ('A' for Active; 'I' for Inactive)
REMARK    1  A    between atoms: C_1  and  C_2
REMARK    2  A    between atoms: C_5  and  C_8
REMARK    3  A    between atoms: N_10  and  C_11
REMARK    4  A    between atoms: C_11  and  C_12
REMARK    5  A    between atoms: C_12  and  C_13
REMARK    6  A    between atoms: C_16  and  S_19
REMARK    7  A    between atoms: S_19  and  N_22
REMARK    8  A    between atoms: N_25  and  C_26
REMARK                            x       y       z     vdW  Elec       q    Type
REMARK                         _______ _______ _______ _____ _____    ______ ____
ROOT
ATOM      1  C   UNL     1       1.455  -1.936  -0.628  0.00  0.00    -0.046 A 
ATOM      2  C   UNL     1       1.662  -0.553  -0.501  0.00  0.00    +0.005 A 
ATOM      3  C   UNL     1       1.086   0.152   0.560  0.00  0.00    +0.029 A 
ATOM      4  C   UNL     1       0.306  -0.518   1.511  0.00  0.00    +0.109 A 
ATOM      5  C   UNL     1       0.099  -1.899   1.388  0.00  0.00    +0.029 A 
ATOM      6  C   UNL     1       0.675  -2.605   0.328  0.00  0.00    +0.005 A 
ENDROOT
BRANCH   4   7
ATOM      7  S   UNL     1      -0.433   0.384   2.829  0.00  0.00    +0.076 S 
ATOM      8  O   UNL     1       0.548   1.396   3.349  0.00  0.00    -0.150 OA
ATOM      9  O   UNL     1      -0.809  -0.537   3.957  0.00  0.00    -0.150 OA
BRANCH   7  10
ATOM     10  N   UNL     1      -1.846   1.199   2.247  0.00  0.00    -0.169 N 
ATOM     11  C   UNL     1      -2.984   0.480   1.760  0.00  0.00    +0.319 C 
ATOM     12  O   UNL     1      -3.024  -0.777   1.855  0.00  0.00    -0.251 OA
ATOM     13  N   UNL     1      -4.077   1.195   1.168  0.00  0.00    -0.295 N 
ATOM     14  H   UNL     1      -1.834   2.242   2.197  0.00  0.00    +0.178 HD
ATOM     15  H   UNL     1      -4.035   2.240   1.160  0.00  0.00    +0.151 HD
BRANCH  13  16
ATOM     16  C   UNL     1      -5.247   0.513   0.604  0.00  0.00    +0.074 C 
ATOM     17  C   UNL     1      -6.403   1.512   0.408  0.00  0.00    +0.022 C 
ATOM     18  C   UNL     1      -7.622   0.829  -0.224  0.00  0.00    +0.002 C 
ATOM     19  C   UNL     1      -7.251   0.168  -1.556  0.00  0.00    +0.000 C 
ATOM     20  C   UNL     1      -6.097  -0.826  -1.375  0.00  0.00    +0.002 C 
ATOM     21  C   UNL     1      -4.878  -0.145  -0.740  0.00  0.00    +0.022 C 
ENDBRANCH  13  16
ENDBRANCH   7  10
ENDBRANCH   4   7
BRANCH   1  22
ATOM     22  C   UNL     1       2.115  -2.704  -1.744  0.00  0.00    +0.054 C 
BRANCH  22  23
ATOM     23  C   UNL     1       3.425  -3.353  -1.280  0.00  0.00    +0.109 C 
BRANCH  23  26
ATOM     24  C   UNL     1       5.008  -1.389  -1.595  0.00  0.00    +0.264 C 
ATOM     25  O   UNL     1       4.956  -1.515  -2.849  0.00  0.00    -0.268 OA
ATOM     26  N   UNL     1       4.354  -2.353  -0.755  0.00  0.00    -0.310 N 
ATOM     27  H   UNL     1       4.538  -2.349   0.274  0.00  0.00    +0.149 HD
BRANCH  24  32
ATOM     28  C   UNL     1       7.749   3.069   0.750  0.00  0.00    +0.067 C 
ATOM     29  C   UNL     1       7.054   1.895   0.138  0.00  0.00    +0.056 A 
ATOM     30  C   UNL     1       6.359   0.981   0.936  0.00  0.00    +0.134 A 
ATOM     31  N   UNL     1       5.718  -0.064   0.351  0.00  0.00    -0.247 NA
ATOM     32  C   UNL     1       5.731  -0.246  -0.998  0.00  0.00    +0.143 A 
ATOM     33  C   UNL     1       6.421   0.679  -1.797  0.00  0.00    +0.144 A 
ATOM     34  N   UNL     1       7.062   1.725  -1.211  0.00  0.00    -0.256 NA
ENDBRANCH  24  32
ENDBRANCH  23  26
ENDBRANCH  22  23
ENDBRANCH   1  22
TORSDOF 7
