REMARK  Name = 
REMARK  10 active torsions:
REMARK  status: ('A' for Active; 'I' for Inactive)
REMARK    1  A    between atoms: C_1  and  O_2
REMARK    2  A    between atoms: O_2  and  C_3
REMARK    3  A    between atoms: C_9  and  C_10
REMARK    4  A    between atoms: C_9  and  C_11
REMARK    5  A    between atoms: N_14  and  C_15
REMARK    6  A    between atoms: C_15  and  C_16
REMARK    7  A    between atoms: C_16  and  C_17
REMARK    8  A    between atoms: C_20  and  S_23
REMARK    9  A    between atoms: S_23  and  N_26
REMARK   10  A    between atoms: N_29  and  C_30
REMARK                            x       y       z     vdW  Elec       q    Type
REMARK                         _______ _______ _______ _____ _____    ______ ____
ROOT
ATOM      1  C   UNL     1      -0.944   2.022  -2.430  0.00  0.00    -0.046 A 
ATOM      2  C   UNL     1      -0.959   1.873  -1.034  0.00  0.00    +0.005 A 
ATOM      3  C   UNL     1      -0.255   0.829  -0.428  0.00  0.00    +0.029 A 
ATOM      4  C   UNL     1       0.469  -0.080  -1.209  0.00  0.00    +0.109 A 
ATOM      5  C   UNL     1       0.492   0.070  -2.603  0.00  0.00    +0.029 A 
ATOM      6  C   UNL     1      -0.216   1.111  -3.211  0.00  0.00    +0.005 A 
ENDROOT
BRANCH   4   7
ATOM      7  S   UNL     1       1.363  -1.380  -0.429  0.00  0.00    +0.076 S 
ATOM      8  O   UNL     1       0.480  -2.058   0.580  0.00  0.00    -0.150 OA
ATOM      9  O   UNL     1       1.800  -2.385  -1.459  0.00  0.00    -0.150 OA
BRANCH   7  10
ATOM     10  N   UNL     1       2.753  -0.712   0.359  0.00  0.00    -0.169 N 
ATOM     11  C   UNL     1       3.804  -1.537   0.873  0.00  0.00    +0.319 C 
ATOM     12  O   UNL     1       3.728  -2.791   0.773  0.00  0.00    -0.251 OA
ATOM     13  N   UNL     1       4.942  -0.930   1.500  0.00  0.00    -0.295 N 
ATOM     14  H   UNL     1       2.819   0.326   0.458  0.00  0.00    +0.178 HD
ATOM     15  H   UNL     1       4.947   0.110   1.610  0.00  0.00    +0.151 HD
BRANCH  13  16
ATOM     16  C   UNL     1       6.094  -1.713   1.962  0.00  0.00    +0.074 C 
ATOM     17  C   UNL     1       6.901  -2.222   0.739  0.00  0.00    +0.022 C 
ATOM     18  C   UNL     1       8.390  -2.387   1.060  0.00  0.00    +0.002 C 
ATOM     19  C   UNL     1       9.030  -1.048   1.479  0.00  0.00    +0.000 C 
ATOM     20  C   UNL     1       8.055  -0.103   2.212  0.00  0.00    +0.002 C 
ATOM     21  C   UNL     1       6.958  -0.881   2.945  0.00  0.00    +0.022 C 
ENDBRANCH  13  16
ENDBRANCH   7  10
ENDBRANCH   4   7
BRANCH   1  22
ATOM     22  C   UNL     1      -1.775   3.092  -3.088  0.00  0.00    +0.054 C 
BRANCH  22  23
ATOM     23  C   UNL     1      -3.129   2.544  -3.561  0.00  0.00    +0.121 C 
BRANCH  23  35
ATOM     24  C   UNL     1      -4.672  -1.945   0.523  0.00  0.00    +0.121 A 
ATOM     25  C   UNL     1      -4.190  -1.380  -0.658  0.00  0.00    +0.059 A 
ATOM     26  C   UNL     1      -4.353  -0.007  -0.930  0.00  0.00    +0.045 A 
ATOM     27  C   UNL     1      -5.003   0.824   0.009  0.00  0.00    -0.021 A 
ATOM     28  C   UNL     1      -5.495   0.234   1.196  0.00  0.00    +0.009 A 
ATOM     29  C   UNL     1      -5.329  -1.127   1.452  0.00  0.00    +0.046 A 
ATOM     30  C   UNL     1      -5.222   2.325  -0.237  0.00  0.00    +0.067 C 
ATOM     31  C   UNL     1      -6.738   2.602  -0.332  0.00  0.00    +0.025 C 
ATOM     32  C   UNL     1      -4.619   3.131   0.937  0.00  0.00    +0.025 C 
ATOM     33  C   UNL     1      -4.578   2.832  -1.522  0.00  0.00    +0.232 C 
ATOM     34  O   UNL     1      -4.664   4.064  -1.792  0.00  0.00    -0.274 OA
ATOM     35  N   UNL     1      -3.889   1.963  -2.439  0.00  0.00    -0.237 N 
ATOM     36  C   UNL     1      -3.835   0.550  -2.190  0.00  0.00    +0.253 C 
ATOM     37  O   UNL     1      -3.325  -0.221  -3.050  0.00  0.00    -0.270 OA
BRANCH  24  39
ATOM     38  C   UNL     1      -4.931  -4.028   1.883  0.00  0.00    +0.277 C 
ATOM     39  O   UNL     1      -4.481  -3.319   0.733  0.00  0.00    -0.495 OA
ENDBRANCH  24  39
ENDBRANCH  23  35
ENDBRANCH  22  23
ENDBRANCH   1  22
TORSDOF 7
