REMARK  Name = 
REMARK  8 active torsions:
REMARK  status: ('A' for Active; 'I' for Inactive)
REMARK    1  A    between atoms: C_1  and  C_2
REMARK    2  A    between atoms: C_4  and  C_7
REMARK    3  A    between atoms: N_9  and  C_10
REMARK    4  A    between atoms: C_10  and  C_11
REMARK    5  A    between atoms: C_11  and  C_12
REMARK    6  A    between atoms: C_15  and  S_18
REMARK    7  A    between atoms: S_18  and  N_21
REMARK    8  A    between atoms: N_24  and  N_25
REMARK                            x       y       z     vdW  Elec       q    Type
REMARK                         _______ _______ _______ _____ _____    ______ ____
ROOT
ATOM      1  C   UNL     1      -2.907  -1.119   0.993  0.00  0.00    -0.046 A 
ATOM      2  C   UNL     1      -2.170  -2.018   0.207  0.00  0.00    +0.005 A 
ATOM      3  C   UNL     1      -0.790  -2.148   0.391  0.00  0.00    +0.029 A 
ATOM      4  C   UNL     1      -0.131  -1.377   1.356  0.00  0.00    +0.109 A 
ATOM      5  C   UNL     1      -0.861  -0.463   2.128  0.00  0.00    +0.029 A 
ATOM      6  C   UNL     1      -2.241  -0.333   1.947  0.00  0.00    +0.005 A 
ENDROOT
BRANCH   4   7
ATOM      7  S   UNL     1       1.611  -1.524   1.561  0.00  0.00    +0.076 S 
ATOM      8  O   UNL     1       2.019  -2.958   1.369  0.00  0.00    -0.150 OA
ATOM      9  O   UNL     1       1.995  -1.084   2.946  0.00  0.00    -0.150 OA
BRANCH   7  10
ATOM     10  N   UNL     1       2.406  -0.525   0.391  0.00  0.00    -0.168 N 
ATOM     11  C   UNL     1       3.829  -0.378   0.366  0.00  0.00    +0.333 C 
ATOM     12  O   UNL     1       4.537  -0.986   1.214  0.00  0.00    -0.250 OA
ATOM     13  N   UNL     1       4.439   0.468  -0.626  0.00  0.00    -0.231 N 
ATOM     14  H   UNL     1       1.823  -0.026  -0.317  0.00  0.00    +0.178 HD
ATOM     15  H   UNL     1       3.813   0.971  -1.294  0.00  0.00    +0.171 HD
BRANCH  13  16
ATOM     16  N   UNL     1       5.831   0.685  -0.747  0.00  0.00    -0.226 NA
ATOM     17  C   UNL     1       6.375   1.280   0.489  0.00  0.00    +0.105 C 
ATOM     18  C   UNL     1       7.602   2.136   0.153  0.00  0.00    +0.017 C 
ATOM     19  C   UNL     1       8.935   1.362   0.144  0.00  0.00    +0.001 C 
ATOM     20  C   UNL     1       8.882  -0.090  -0.369  0.00  0.00    +0.001 C 
ATOM     21  C   UNL     1       7.958  -0.305  -1.578  0.00  0.00    +0.017 C 
ATOM     22  C   UNL     1       6.503  -0.560  -1.157  0.00  0.00    +0.105 C 
ENDBRANCH  13  16
ENDBRANCH   7  10
ENDBRANCH   4   7
BRANCH   1  23
ATOM     23  C   UNL     1      -4.386  -0.950   0.772  0.00  0.00    +0.054 C 
BRANCH  23  24
ATOM     24  C   UNL     1      -4.655   0.176  -0.230  0.00  0.00    +0.109 C 
BRANCH  24  27
ATOM     25  C   UNL     1      -6.978   0.905   0.489  0.00  0.00    +0.266 C 
ATOM     26  O   UNL     1      -6.515   1.399   1.553  0.00  0.00    -0.268 OA
ATOM     27  N   UNL     1      -6.090   0.312  -0.472  0.00  0.00    -0.310 N 
ATOM     28  H   UNL     1      -6.456   0.012  -1.402  0.00  0.00    +0.149 HD
BRANCH  25  32
ATOM     29  C   UNL     1     -11.616   0.423  -1.397  0.00  0.00    +0.089 C 
ATOM     30  C   UNL     1     -10.435   0.735  -0.542  0.00  0.00    +0.135 A 
ATOM     31  C   UNL     1      -9.121   0.430  -0.824  0.00  0.00    +0.080 A 
ATOM     32  C   UNL     1      -8.432   0.953   0.255  0.00  0.00    +0.168 A 
ATOM     33  N   UNL     1      -9.303   1.530   1.109  0.00  0.00    -0.073 NA
ATOM     34  O   UNL     1     -10.490   1.383   0.597  0.00  0.00    -0.359 OA
ENDBRANCH  25  32
ENDBRANCH  24  27
ENDBRANCH  23  24
ENDBRANCH   1  23
TORSDOF 7
