REMARK  Name = 
REMARK  6 active torsions:
REMARK  status: ('A' for Active; 'I' for Inactive)
REMARK    1  A    between atoms: N_1  and  C_2
REMARK    2  A    between atoms: C_3  and  O_4
REMARK    3  A    between atoms: C_6  and  C_7
REMARK    4  A    between atoms: C_7  and  O_8
REMARK    5  A    between atoms: C_9  and  O_10
REMARK    6  A    between atoms: C_11  and  O_12
REMARK                            x       y       z     vdW  Elec       q    Type
REMARK                         _______ _______ _______ _____ _____    ______ ____
ROOT
ATOM      1  C   UNL     1      -1.480   0.015   0.460  0.00  0.00    +0.139 C 
ATOM      2  C   UNL     1      -0.973  -1.394   0.065  0.00  0.00    +0.267 C 
ATOM      3  O   UNL     1       0.435  -1.485   0.213  0.00  0.00    -0.342 OA
ATOM      4  C   UNL     1       1.090  -0.610  -0.688  0.00  0.00    +0.178 C 
ATOM      5  C   UNL     1       0.766   0.860  -0.340  0.00  0.00    +0.176 C 
ATOM      6  C   UNL     1      -0.756   1.080  -0.390  0.00  0.00    +0.167 C 
ENDROOT
BRANCH   1   7
ATOM      7  N   UNL     1      -2.929   0.106   0.252  0.00  0.00    -0.321 NA
ATOM      8  H   UNL     1      -3.257   1.035   0.601  0.00  0.00    +0.119 HD
ATOM      9  H   UNL     1      -3.400  -0.599   0.864  0.00  0.00    +0.119 HD
ENDBRANCH   1   7
BRANCH   2  10
ATOM     10  O   UNL     1      -1.581  -2.374   0.866  0.00  0.00    -0.366 OA
ATOM     11  H   UNL     1      -1.236  -2.252   1.789  0.00  0.00    +0.213 HD
ENDBRANCH   2  10
BRANCH   5  12
ATOM     12  O   UNL     1       1.398   1.714  -1.260  0.00  0.00    -0.387 OA
ATOM     13  H   UNL     1       1.467   2.605  -0.827  0.00  0.00    +0.210 HD
ENDBRANCH   5  12
BRANCH   6  14
ATOM     14  O   UNL     1      -1.048   2.365   0.099  0.00  0.00    -0.387 OA
ATOM     15  H   UNL     1      -1.823   2.708  -0.418  0.00  0.00    +0.210 HD
ENDBRANCH   6  14
BRANCH   4  16
ATOM     16  C   UNL     1       2.600  -0.888  -0.632  0.00  0.00    +0.190 C 
BRANCH  16  17
ATOM     17  O   UNL     1       3.092  -0.738   0.674  0.00  0.00    -0.392 OA
ATOM     18  H   UNL     1       3.410   0.199   0.757  0.00  0.00    +0.210 HD
ENDBRANCH  16  17
ENDBRANCH   4  16
TORSDOF 6
