REMARK  Name = 
REMARK  13 active torsions:
REMARK  status: ('A' for Active; 'I' for Inactive)
REMARK    1  A    between atoms: N_1  and  C_2
REMARK    2  A    between atoms: C_2  and  C_3
REMARK    3  A    between atoms: C_2  and  C_18
REMARK    4  A    between atoms: C_3  and  C_4
REMARK    5  A    between atoms: C_4  and  C_5
REMARK    6  A    between atoms: N_7  and  C_8
REMARK    7  A    between atoms: C_8  and  C_9
REMARK    8  A    between atoms: C_8  and  C_11
REMARK    9  A    between atoms: C_9  and  S_10
REMARK   10  A    between atoms: N_13  and  CA_14
REMARK   11  A    between atoms: CA_14  and  C_15
REMARK   12  A    between atoms: C_15  and  O_16
REMARK   13  A    between atoms: C_18  and  O_19
REMARK                            x       y       z     vdW  Elec       q    Type
REMARK                         _______ _______ _______ _____ _____    ______ ____
ROOT
ATOM      1  C   UNK A   1       0.505  -0.058   0.773  0.00  0.00    +0.214 C 
ATOM      2  O   UNK A   1      -0.151   0.873   1.313  0.00  0.00    -0.276 OA
ATOM      3  N   UNK A   1       0.096  -0.591  -0.495  0.00  0.00    -0.303 N 
ATOM      4  H   UNK A   1       0.645  -1.379  -0.908  0.00  0.00    +0.149 HD
ENDROOT
BRANCH   1   5
ATOM      5  C   UNK A   1       1.712  -0.613   1.474  0.00  0.00    +0.098 C 
BRANCH   5   6
ATOM      6  C   UNK A   1       2.822   0.438   1.672  0.00  0.00    +0.039 C 
BRANCH   6   7
ATOM      7  C   UNK A   1       3.615   0.832   0.405  0.00  0.00    +0.161 C 
BRANCH   7   8
ATOM      8  N   UNK A   1       2.801   1.636  -0.513  0.00  0.00    -0.318 NA
ATOM      9  H   UNK A   1       3.438   2.077  -1.216  0.00  0.00    +0.119 HD
ATOM     10  H   UNK A   1       2.145   1.027  -1.049  0.00  0.00    +0.119 HD
ENDBRANCH   7   8
BRANCH   7  11
ATOM     11  C   UNK A   1       4.242  -0.360  -0.276  0.00  0.00    +0.322 C 
ATOM     12  O   UNK A   1       3.647  -0.957  -1.214  0.00  0.00    -0.249 OA
BRANCH  11  13
ATOM     13  O   UNK A   1       5.472  -0.833   0.171  0.00  0.00    -0.480 OA
ATOM     14  H   UNK A   1       5.905  -1.642  -0.258  0.00  0.00    +0.295 HD
ENDBRANCH  11  13
ENDBRANCH   7  11
ENDBRANCH   6   7
ENDBRANCH   5   6
ENDBRANCH   1   5
BRANCH   3  15
ATOM     15  C   UNK A   1      -1.043  -0.040  -1.236  0.00  0.00    +0.168 C 
BRANCH  15  16
ATOM     16  C   UNK A   1      -2.327  -0.430  -0.552  0.00  0.00    +0.235 C 
ATOM     17  O   UNK A   1      -2.541  -1.642  -0.271  0.00  0.00    -0.274 OA
ATOM     18  N   GLY A   2      -3.309   0.567  -0.236  0.00  0.00    -0.303 N 
ATOM     19  H   GLY A   2      -3.149   1.555  -0.537  0.00  0.00    +0.149 HD
BRANCH  18  20
ATOM     20  CA  GLY A   2      -4.536   0.254   0.492  0.00  0.00    +0.224 C 
BRANCH  20  21
ATOM     21  C   GLY A   2      -4.226  -0.024   1.928  0.00  0.00    +0.322 C 
ATOM     22  OXT GLY A   2      -3.945   0.926   2.706  0.00  0.00    -0.249 OA
BRANCH  21  23
ATOM     23  O   GLY A   2      -4.215  -1.334   2.396  0.00  0.00    -0.480 OA
ATOM     24  H   GLY A   2      -3.992  -1.538   3.363  0.00  0.00    +0.295 HD
ENDBRANCH  21  23
ENDBRANCH  20  21
ENDBRANCH  18  20
ENDBRANCH  15  16
BRANCH  15  25
ATOM     25  C   UNK A   1      -1.027  -0.541  -2.689  0.00  0.00    +0.097 C 
BRANCH  25  26
ATOM     26  S   UNK A   1      -2.317   0.270  -3.692  0.00  0.00    -0.176 S 
ATOM     27  H   UNK A   1      -1.706   1.535  -3.600  0.00  0.00    +0.102 HD
ENDBRANCH  25  26
ENDBRANCH  15  25
ENDBRANCH   3  15
TORSDOF 13
