REMARK  Name = 
REMARK  3 active torsions:
REMARK  status: ('A' for Active; 'I' for Inactive)
REMARK    1  A    between atoms: C_1  and  C_2
REMARK    2  A    between atoms: C_2  and  C_3
REMARK    3  A    between atoms: C_3  and  C_11
REMARK                            x       y       z     vdW  Elec       q    Type
REMARK                         _______ _______ _______ _____ _____    ______ ____
ROOT
ATOM      1  C   UNL     1      -0.454   0.032   0.044  0.00  0.00    +0.072 C 
ATOM      2  C   UNL     1      -1.139  -0.310   1.412  0.00  0.00    +0.030 C 
ATOM      3  C   UNL     1      -2.657  -0.073   1.464  0.00  0.00    +0.097 C 
ATOM      4  C   UNL     1      -3.355  -0.645   0.273  0.00  0.00    +0.219 C 
ATOM      5  O   UNL     1      -4.600  -0.832   0.314  0.00  0.00    -0.275 OA
ATOM      6  N   UNL     1      -2.635  -0.945  -0.923  0.00  0.00    -0.256 N 
ATOM      7  C   UNL     1      -1.218  -0.760  -1.025  0.00  0.00    +0.230 C 
ATOM      8  O   UNL     1      -0.631  -1.244  -2.029  0.00  0.00    -0.274 OA
ATOM      9  H   UNL     1      -3.148  -1.377  -1.725  0.00  0.00    +0.157 HD
ENDROOT
BRANCH   1  10
ATOM     10  C   UNL     1       1.064  -0.346   0.080  0.00  0.00    -0.032 A 
ATOM     11  C   UNL     1       1.850  -0.333  -1.102  0.00  0.00    +0.004 A 
ATOM     12  C   UNL     1       3.212  -0.645  -1.079  0.00  0.00    +0.000 A 
ATOM     13  C   UNL     1       3.837  -0.969   0.121  0.00  0.00    +0.000 A 
ATOM     14  C   UNL     1       3.102  -0.973   1.303  0.00  0.00    +0.000 A 
ATOM     15  C   UNL     1       1.740  -0.661   1.290  0.00  0.00    +0.004 A 
ENDBRANCH   1  10
BRANCH   1  17
ATOM     16  C   UNL     1      -0.059   2.121  -1.511  0.00  0.00    +0.005 C 
ATOM     17  C   UNL     1      -0.624   1.569  -0.199  0.00  0.00    +0.017 C 
ENDBRANCH   1  17
TORSDOF 2
