REMARK  Name = 
REMARK  9 active torsions:
REMARK  status: ('A' for Active; 'I' for Inactive)
REMARK    1  A    between atoms: C_1  and  O_2
REMARK    2  A    between atoms: O_2  and  C_3
REMARK    3  A    between atoms: C_4  and  C_10
REMARK    4  A    between atoms: N_12  and  C_13
REMARK    5  A    between atoms: C_13  and  C_14
REMARK    6  A    between atoms: C_14  and  C_15
REMARK    7  A    between atoms: C_18  and  S_21
REMARK    8  A    between atoms: S_21  and  N_24
REMARK    9  A    between atoms: N_27  and  C_28
REMARK                            x       y       z     vdW  Elec       q    Type
REMARK                         _______ _______ _______ _____ _____    ______ ____
ROOT
ATOM      1  C   UNL     1      -1.585  -1.697   1.454  0.00  0.00    -0.046 A 
ATOM      2  C   UNL     1      -1.883  -2.478   0.325  0.00  0.00    +0.005 A 
ATOM      3  C   UNL     1      -0.949  -2.610  -0.707  0.00  0.00    +0.029 A 
ATOM      4  C   UNL     1       0.289  -1.959  -0.628  0.00  0.00    +0.109 A 
ATOM      5  C   UNL     1       0.589  -1.180   0.498  0.00  0.00    +0.029 A 
ATOM      6  C   UNL     1      -0.342  -1.050   1.532  0.00  0.00    +0.005 A 
ENDROOT
BRANCH   4   7
ATOM      7  S   UNL     1       1.449  -2.131  -1.943  0.00  0.00    +0.076 S 
ATOM      8  O   UNL     1       0.724  -2.050  -3.257  0.00  0.00    -0.150 OA
ATOM      9  O   UNL     1       2.133  -3.466  -1.847  0.00  0.00    -0.150 OA
BRANCH   7  10
ATOM     10  N   UNL     1       2.628  -0.859  -1.893  0.00  0.00    -0.169 N 
ATOM     11  C   UNL     1       3.795  -0.925  -1.065  0.00  0.00    +0.319 C 
ATOM     12  O   UNL     1       4.000  -1.937  -0.341  0.00  0.00    -0.251 OA
ATOM     13  N   UNL     1       4.721   0.170  -1.057  0.00  0.00    -0.295 N 
ATOM     14  H   UNL     1       2.464  -0.012  -2.482  0.00  0.00    +0.178 HD
ATOM     15  H   UNL     1       4.568   0.946  -1.740  0.00  0.00    +0.151 HD
BRANCH  13  16
ATOM     16  C   UNL     1       5.976   0.140  -0.299  0.00  0.00    +0.074 C 
ATOM     17  C   UNL     1       6.284   1.540   0.287  0.00  0.00    +0.022 C 
ATOM     18  C   UNL     1       7.789   1.788   0.524  0.00  0.00    +0.002 C 
ATOM     19  C   UNL     1       8.552   0.484   0.776  0.00  0.00    +0.000 C 
ATOM     20  C   UNL     1       8.444  -0.480  -0.423  0.00  0.00    +0.002 C 
ATOM     21  C   UNL     1       7.119  -0.348  -1.201  0.00  0.00    +0.022 C 
ENDBRANCH  13  16
ENDBRANCH   7  10
ENDBRANCH   4   7
BRANCH   1  22
ATOM     22  C   UNL     1      -2.603  -1.521   2.552  0.00  0.00    +0.054 C 
BRANCH  22  23
ATOM     23  C   UNL     1      -3.294  -0.154   2.478  0.00  0.00    +0.109 C 
BRANCH  23  26
ATOM     24  C   UNL     1      -5.377   0.629   1.246  0.00  0.00    +0.248 C 
ATOM     25  O   UNL     1      -5.781   1.234   2.276  0.00  0.00    -0.270 OA
ATOM     26  N   UNL     1      -4.107  -0.042   1.265  0.00  0.00    -0.311 N 
ATOM     27  H   UNL     1      -3.660  -0.274   0.350  0.00  0.00    +0.149 HD
BRANCH  24  29
ATOM     28  C   UNL     1      -7.072   1.699  -0.290  0.00  0.00    +0.132 A 
ATOM     29  C   UNL     1      -6.215   0.617   0.021  0.00  0.00    +0.080 A 
ATOM     30  C   UNL     1      -6.160  -0.490  -0.846  0.00  0.00    +0.036 A 
ATOM     31  C   UNL     1      -6.941  -0.528  -2.003  0.00  0.00    +0.042 A 
ATOM     32 CL   UNL     1      -6.863  -1.920  -3.069  0.00  0.00    -0.084 Cl
ATOM     33  C   UNL     1      -7.788   0.536  -2.308  0.00  0.00    +0.023 A 
ATOM     34  C   UNL     1      -7.856   1.643  -1.460  0.00  0.00    +0.048 A 
BRANCH  28  36
ATOM     35  C   UNL     1      -7.929   3.961   0.365  0.00  0.00    +0.277 C 
ATOM     36  O   UNL     1      -7.114   2.811   0.568  0.00  0.00    -0.494 OA
ENDBRANCH  28  36
ENDBRANCH  24  29
ENDBRANCH  23  26
ENDBRANCH  22  23
ENDBRANCH   1  22
TORSDOF 8
