REMARK  Name = 
REMARK  7 active torsions:
REMARK  status: ('A' for Active; 'I' for Inactive)
REMARK    1  A    between atoms: C_1  and  O_2
REMARK    2  A    between atoms: O_2  and  C_3
REMARK    3  A    between atoms: C_3  and  C_4
REMARK    4  A    between atoms: C_4  and  O_5
REMARK    5  A    between atoms: O_5  and  C_6
REMARK    6  A    between atoms: N_10  and  S_11
REMARK    7  A    between atoms: S_11  and  C_14
REMARK                            x       y       z     vdW  Elec       q    Type
REMARK                         _______ _______ _______ _____ _____    ______ ____
ROOT
ATOM      1  C   UNL     1       1.376   1.310   0.081  0.00  0.00    +0.157 A 
ATOM      2  C   UNL     1       0.909   2.625   0.055  0.00  0.00    +0.161 A 
ATOM      3  N   UNL     1      -0.266   2.921  -0.558  0.00  0.00    -0.218 NA
ATOM      4  C   UNL     1      -1.009   1.952  -1.155  0.00  0.00    +0.235 A 
ATOM      5  N   UNL     1      -2.246   2.296  -1.786  0.00  0.00    -0.184 N 
ATOM      6  N   UNL     1      -0.572   0.664  -1.144  0.00  0.00    -0.218 NA
ATOM      7  C   UNL     1       0.596   0.323  -0.542  0.00  0.00    +0.161 A 
ATOM      8  H   UNL     1      -2.563   3.291  -1.788  0.00  0.00    +0.177 HD
ENDROOT
BRANCH   5   9
ATOM      9  S   UNL     1      -3.261   1.102  -2.527  0.00  0.00    +0.075 S 
ATOM     10  O   UNL     1      -4.516   1.757  -3.031  0.00  0.00    -0.150 OA
ATOM     11  O   UNL     1      -2.525   0.491  -3.687  0.00  0.00    -0.150 OA
BRANCH   9  12
ATOM     12  C   UNL     1      -3.692  -0.132  -1.348  0.00  0.00    +0.109 A 
ATOM     13  C   UNL     1      -3.979   0.235  -0.026  0.00  0.00    +0.029 A 
ATOM     14  C   UNL     1      -4.313  -0.742   0.917  0.00  0.00    +0.002 A 
ATOM     15  C   UNL     1      -4.365  -2.088   0.543  0.00  0.00    +0.000 A 
ATOM     16  C   UNL     1      -4.085  -2.458  -0.776  0.00  0.00    +0.002 A 
ATOM     17  C   UNL     1      -3.749  -1.483  -1.721  0.00  0.00    +0.029 A 
ENDBRANCH   9  12
ENDBRANCH   5   9
BRANCH   1  18
ATOM     18  O   UNL     1       2.592   1.030   0.722  0.00  0.00    -0.487 OA
BRANCH  18  19
ATOM     19  C   UNL     1       3.169  -0.270   0.816  0.00  0.00    +0.257 C 
BRANCH  19  20
ATOM     20  C   UNL     1       4.483  -0.189   1.579  0.00  0.00    +0.200 C 
BRANCH  20  22
ATOM     21  C   UNL     1       6.265  -1.410   2.374  0.00  0.00    +0.194 C 
ATOM     22  O   UNL     1       5.047  -1.480   1.667  0.00  0.00    -0.380 OA
ENDBRANCH  20  22
ENDBRANCH  19  20
ENDBRANCH  18  19
ENDBRANCH   1  18
TORSDOF 6
