REMARK  Name = 
REMARK  20 active torsions:
REMARK  status: ('A' for Active; 'I' for Inactive)
REMARK    1  A    between atoms: C_2  and  C_3
REMARK    2  A    between atoms: C_2  and  O_12
REMARK    3  A    between atoms: C_3  and  C_4
REMARK    4  A    between atoms: C_4  and  C_5
REMARK    5  A    between atoms: C_5  and  C_6
REMARK    6  A    between atoms: O_12  and  C_13
REMARK    7  A    between atoms: C_13  and  C_14
REMARK    8  A    between atoms: C_14  and  C_15
REMARK    9  A    between atoms: C_14  and  O_28
REMARK   10  A    between atoms: C_15  and  O_16
REMARK   11  A    between atoms: O_16  and  C_17
REMARK   12  A    between atoms: C_17  and  C_19
REMARK   13  A    between atoms: C_19  and  C_20
REMARK   14  A    between atoms: C_20  and  C_21
REMARK   15  A    between atoms: C_21  and  C_22
REMARK   16  A    between atoms: O_28  and  C_29
REMARK   17  A    between atoms: C_29  and  C_31
REMARK   18  A    between atoms: C_31  and  C_32
REMARK   19  A    between atoms: C_32  and  C_33
REMARK   20  A    between atoms: C_33  and  C_34
REMARK                            x       y       z     vdW  Elec       q    Type
REMARK                         _______ _______ _______ _____ _____    ______ ____
ROOT
ATOM      1  C   UNL     1      -0.818   0.238   0.128  0.00  0.00    +0.251 C 
ENDROOT
BRANCH   1   2
ATOM      2  C   UNL     1      -1.342   0.241  -1.327  0.00  0.00    +0.280 C 
BRANCH   2   3
ATOM      3  O   UNL     1      -2.034  -0.970  -1.644  0.00  0.00    -0.461 OA
BRANCH   3   5
ATOM      4  O   UNL     1      -3.875  -0.568  -0.291  0.00  0.00    -0.251 OA
ATOM      5  C   UNL     1      -3.267  -1.337  -1.084  0.00  0.00    +0.307 C 
BRANCH   5   6
ATOM      6  C   UNL     1      -3.844  -2.682  -1.442  0.00  0.00    +0.121 C 
BRANCH   6   7
ATOM      7  C   UNL     1      -4.106  -3.583  -0.222  0.00  0.00    +0.016 C 
BRANCH   7   8
ATOM      8  C   UNL     1      -5.275  -3.136   0.684  0.00  0.00    +0.035 C 
BRANCH   8   9
ATOM      9  C   UNL     1      -6.598  -3.063  -0.033  0.00  0.00    -0.047 A 
ATOM     10  C   UNL     1      -7.414  -4.200  -0.147  0.00  0.00    +0.003 A 
ATOM     11  C   UNL     1      -8.646  -4.119  -0.798  0.00  0.00    +0.000 A 
ATOM     12  C   UNL     1      -9.061  -2.911  -1.363  0.00  0.00    +0.000 A 
ATOM     13  C   UNL     1      -8.250  -1.780  -1.266  0.00  0.00    +0.000 A 
ATOM     14  C   UNL     1      -7.029  -1.853  -0.594  0.00  0.00    +0.003 A 
ENDBRANCH   8   9
ENDBRANCH   7   8
ENDBRANCH   6   7
ENDBRANCH   5   6
ENDBRANCH   3   5
ENDBRANCH   2   3
ENDBRANCH   1   2
BRANCH   1  15
ATOM     15  C   UNL     1      -0.075  -1.067   0.472  0.00  0.00    +0.280 C 
BRANCH  15  16
ATOM     16  O   UNL     1       1.037  -1.306  -0.409  0.00  0.00    -0.461 OA
BRANCH  16  17
ATOM     17  C   UNL     1       2.262  -0.630  -0.279  0.00  0.00    +0.307 C 
ATOM     18  O   UNL     1       2.403   0.516  -0.790  0.00  0.00    -0.251 OA
BRANCH  17  19
ATOM     19  C   UNL     1       3.365  -1.225   0.546  0.00  0.00    +0.121 C 
BRANCH  19  20
ATOM     20  C   UNL     1       4.718  -1.183  -0.193  0.00  0.00    +0.016 C 
BRANCH  20  21
ATOM     21  C   UNL     1       4.946  -2.430  -1.075  0.00  0.00    +0.035 C 
BRANCH  21  22
ATOM     22  C   UNL     1       5.631  -3.532  -0.297  0.00  0.00    -0.047 A 
ATOM     23  C   UNL     1       4.880  -4.527   0.350  0.00  0.00    +0.003 A 
ATOM     24  C   UNL     1       5.521  -5.507   1.115  0.00  0.00    +0.000 A 
ATOM     25  C   UNL     1       6.912  -5.501   1.238  0.00  0.00    +0.000 A 
ATOM     26  C   UNL     1       7.666  -4.516   0.594  0.00  0.00    +0.000 A 
ATOM     27  C   UNL     1       7.030  -3.530  -0.166  0.00  0.00    +0.003 A 
ENDBRANCH  21  22
ENDBRANCH  20  21
ENDBRANCH  19  20
ENDBRANCH  17  19
ENDBRANCH  16  17
ENDBRANCH  15  16
ENDBRANCH   1  15
BRANCH   1  28
ATOM     28  O   UNL     1       0.066   1.344   0.334  0.00  0.00    -0.454 OA
BRANCH  28  29
ATOM     29  C   UNL     1      -0.351   2.674   0.479  0.00  0.00    +0.308 C 
ATOM     30  O   UNL     1      -1.571   2.980   0.394  0.00  0.00    -0.251 OA
BRANCH  29  31
ATOM     31  C   UNL     1       0.683   3.745   0.681  0.00  0.00    +0.121 C 
BRANCH  31  32
ATOM     32  C   UNL     1       0.292   4.686   1.826  0.00  0.00    +0.016 C 
BRANCH  32  33
ATOM     33  C   UNL     1       1.415   5.664   2.187  0.00  0.00    +0.035 C 
BRANCH  33  34
ATOM     34  C   UNL     1       1.712   6.633   1.074  0.00  0.00    -0.047 A 
ATOM     35  C   UNL     1       0.913   7.773   0.898  0.00  0.00    +0.003 A 
ATOM     36  C   UNL     1       1.179   8.667  -0.143  0.00  0.00    +0.000 A 
ATOM     37  C   UNL     1       2.242   8.424  -1.018  0.00  0.00    +0.000 A 
ATOM     38  C   UNL     1       3.036   7.284  -0.859  0.00  0.00    +0.000 A 
ATOM     39  C   UNL     1       2.773   6.389   0.184  0.00  0.00    +0.003 A 
ENDBRANCH  33  34
ENDBRANCH  32  33
ENDBRANCH  31  32
ENDBRANCH  29  31
ENDBRANCH  28  29
ENDBRANCH   1  28
TORSDOF 20
