REMARK  Name = 
REMARK  8 active torsions:
REMARK  status: ('A' for Active; 'I' for Inactive)
REMARK    1  A    between atoms: C_1  and  N_2
REMARK    2  A    between atoms: N_2  and  C_3
REMARK    3  A    between atoms: C_6  and  O_8
REMARK    4  A    between atoms: O_8  and  C_9
REMARK    5  A    between atoms: C_9  and  C_11
REMARK    6  A    between atoms: C_11  and  O_12
REMARK    7  A    between atoms: C_11  and  C_13
REMARK    8  A    between atoms: C_11  and  C_18
REMARK                            x       y       z     vdW  Elec       q    Type
REMARK                         _______ _______ _______ _____ _____    ______ ____
ROOT
ATOM      1  C   UNL     1      -1.609   0.091   0.038  0.00  0.00    +0.190 C 
ENDROOT
BRANCH   1   2
ATOM      2  C   UNL     1      -2.016   1.398  -0.651  0.00  0.00    -0.005 A 
ATOM      3  C   UNL     1      -2.417   2.529   0.094  0.00  0.00    +0.007 A 
ATOM      4  C   UNL     1      -2.812   3.705  -0.551  0.00  0.00    +0.000 A 
ATOM      5  C   UNL     1      -2.823   3.771  -1.945  0.00  0.00    +0.000 A 
ATOM      6  C   UNL     1      -2.445   2.660  -2.698  0.00  0.00    +0.000 A 
ATOM      7  C   UNL     1      -2.049   1.481  -2.060  0.00  0.00    +0.007 A 
ENDBRANCH   1   2
BRANCH   1   8
ATOM      8  C   UNL     1      -2.717  -0.991  -0.217  0.00  0.00    +0.036 C 
ATOM      9  C   UNL     1      -2.391  -2.389   0.350  0.00  0.00    +0.007 C 
ATOM     10  C   UNL     1      -3.482  -2.717   1.357  0.00  0.00    +0.000 C 
ATOM     11  C   UNL     1      -4.675  -1.876   0.947  0.00  0.00    +0.000 C 
ATOM     12  C   UNL     1      -4.081  -0.600   0.379  0.00  0.00    +0.007 C 
ENDBRANCH   1   8
BRANCH   1  13
ATOM     13  C   UNL     1      -0.261  -0.333  -0.519  0.00  0.00    +0.344 C 
ATOM     14  O   UNL     1      -0.188  -1.164  -1.467  0.00  0.00    -0.247 OA
BRANCH  13  15
ATOM     15  O   UNL     1       0.901   0.254  -0.005  0.00  0.00    -0.461 OA
BRANCH  15  21
ATOM     16  C   UNL     1       5.334  -0.038  -0.716  0.00  0.00    -0.092 C 
ATOM     17  N   UNL     1       4.444   0.051   0.467  0.00  0.00    +0.379 N 
ATOM     18  C   UNL     1       5.195   0.639   1.599  0.00  0.00    -0.092 C 
ATOM     19  C   UNL     1       3.915  -1.285   0.816  0.00  0.00    -0.072 C 
ATOM     20  C   UNL     1       2.619  -1.483   0.035  0.00  0.00    +0.025 C 
ATOM     21  C   UNL     1       2.212  -0.093  -0.449  0.00  0.00    +0.159 C 
ATOM     22  C   UNL     1       3.245   0.856   0.150  0.00  0.00    -0.031 C 
ENDBRANCH  15  21
ENDBRANCH  13  15
ENDBRANCH   1  13
BRANCH   1  23
ATOM     23  O   UNL     1      -1.472   0.317   1.427  0.00  0.00    -0.373 OA
ATOM     24  H   UNL     1      -1.080  -0.490   1.849  0.00  0.00    +0.211 HD
ENDBRANCH   1  23
TORSDOF 6
