REMARK  Name = 
REMARK  3 active torsions:
REMARK  status: ('A' for Active; 'I' for Inactive)
REMARK    1  A    between atoms: N_1  and  CA_2
REMARK    2  A    between atoms: CA_2  and  C_3
REMARK    3  A    between atoms: C_3  and  O_4
REMARK                            x       y       z     vdW  Elec       q    Type
REMARK                         _______ _______ _______ _____ _____    ______ ____
ROOT
ATOM      1  CA  GLY A   1      -0.691  -0.383  -0.340  0.00  0.00    +0.199 C 
ENDROOT
BRANCH   1   2
ATOM      2  N   GLY A   1      -1.388   0.480   0.610  0.00  0.00    -0.321 NA
ATOM      3  H1  GLY A   1      -1.025   1.456   0.509  0.00  0.00    +0.119 HD
ATOM      4  H2  GLY A   1      -1.169   0.158   1.581  0.00  0.00    +0.119 HD
ENDBRANCH   1   2
BRANCH   1   5
ATOM      5  C   GLY A   1       0.790  -0.349  -0.109  0.00  0.00    +0.319 C 
ATOM      6  OXT GLY A   1       1.323  -1.165   0.690  0.00  0.00    -0.250 OA
BRANCH   5   7
ATOM      7  O   GLY A   1       1.568   0.613  -0.744  0.00  0.00    -0.480 OA
ATOM      8  H   GLY A   1       2.568   0.659  -0.586  0.00  0.00    +0.295 HD
ENDBRANCH   5   7
ENDBRANCH   1   5
TORSDOF 3
