REMARK  Name = 
REMARK  35 active torsions:
REMARK  status: ('A' for Active; 'I' for Inactive)
REMARK    1  A    between atoms: C_1  and  C_2
REMARK    2  A    between atoms: C_2  and  C_3
REMARK    3  A    between atoms: C_2  and  C_4
REMARK    4  A    between atoms: C_4  and  C_5
REMARK    5  A    between atoms: C_5  and  N_6
REMARK    6  A    between atoms: C_5  and  C_61
REMARK    7  A    between atoms: C_7  and  C_9
REMARK    8  A    between atoms: C_9  and  N_10
REMARK    9  A    between atoms: C_11  and  C_13
REMARK   10  A    between atoms: C_13  and  C_14
REMARK   11  A    between atoms: C_13  and  N_22
REMARK   12  A    between atoms: C_14  and  C_15
REMARK   13  A    between atoms: C_18  and  O_19
REMARK   14  A    between atoms: C_23  and  CA_25
REMARK   15  A    between atoms: CA_25  and  C_26
REMARK   16  A    between atoms: CA_25  and  N_28
REMARK   17  A    between atoms: C_26  and  O_27
REMARK   18  A    between atoms: C_29  and  CA_31
REMARK   19  A    between atoms: CA_31  and  CB_32
REMARK   20  A    between atoms: CA_31  and  N_42
REMARK   21  A    between atoms: CB_32  and  CG_33
REMARK   22  A    between atoms: C_43  and  CA_45
REMARK   23  A    between atoms: CA_45  and  CB_46
REMARK   24  A    between atoms: CA_45  and  N_52
REMARK   25  A    between atoms: CB_46  and  CG_47
REMARK   26  A    between atoms: C_53  and  CA_55
REMARK   27  A    between atoms: N_63  and  C_64
REMARK   28  A    between atoms: C_64  and  C_65
REMARK   29  A    between atoms: C_64  and  C_72
REMARK   30  A    between atoms: C_65  and  C_66
REMARK   31  A    between atoms: C_66  and  C_67
REMARK   32  A    between atoms: C_67  and  N_68
REMARK   33  A    between atoms: C_78  and  C_79
REMARK   34  A    between atoms: N_81  and  C_82
REMARK   35  A    between atoms: C_82  and  C_83
REMARK                            x       y       z     vdW  Elec       q    Type
REMARK                         _______ _______ _______ _____ _____    ______ ____
ROOT
ATOM      1  C   UNL     1      -1.835  -1.498   0.007  0.00  0.00    +0.163 C 
ENDROOT
BRANCH   1   3
ATOM      2  N   UNL     1       0.714  -1.356   0.175  0.00  0.00    -0.305 N 
ATOM      3  C   UNL     1      -0.547  -1.656   0.783  0.00  0.00    +0.234 C 
ATOM      4  O   UNL     1      -0.585  -2.121   1.960  0.00  0.00    -0.274 OA
ATOM      5  H   UNL     1       0.725  -1.014  -0.812  0.00  0.00    +0.149 HD
BRANCH   2   6
ATOM      6  C   UNL     1       1.964  -1.503   0.936  0.00  0.00    +0.200 C 
BRANCH   6   8
ATOM      7  N   UNL     1       4.414  -0.933   0.691  0.00  0.00    -0.303 N 
ATOM      8  C   UNL     1       3.180  -1.325   0.075  0.00  0.00    +0.231 C 
ATOM      9  O   UNL     1       3.149  -1.616  -1.147  0.00  0.00    -0.274 OA
ATOM     10  H   UNL     1       4.414  -0.825   1.734  0.00  0.00    +0.149 HD
BRANCH   7  11
ATOM     11  C   UNL     1       5.712  -0.921   0.013  0.00  0.00    +0.159 C 
BRANCH  11  12
ATOM     12  C   UNL     1       6.500   0.295   0.446  0.00  0.00    +0.234 C 
ATOM     13  O   UNL     1       5.966   1.171   1.187  0.00  0.00    -0.274 OA
ATOM     14  N   UNL     1       7.858   0.450   0.025  0.00  0.00    -0.302 N 
ATOM     15  H   UNL     1       8.235  -0.162  -0.730  0.00  0.00    +0.150 HD
BRANCH  14  16
ATOM     16  C   UNL     1       8.796   1.348   0.690  0.00  0.00    +0.159 C 
BRANCH  16  17
ATOM     17  C   UNL     1       9.972   0.548   1.171  0.00  0.00    +0.237 C 
ATOM     18  O   UNL     1       9.759  -0.295   2.095  0.00  0.00    -0.274 OA
ATOM     19  N   UNL     1      11.244   0.534   0.504  0.00  0.00    -0.288 N 
ATOM     20  C   UNL     1      11.803  -0.716   0.009  0.00  0.00    +0.109 C 
ATOM     21  C   UNL     1      13.179  -0.360  -0.528  0.00  0.00    +0.021 C 
ATOM     22  C   UNL     1      13.567   0.927   0.186  0.00  0.00    +0.033 C 
ATOM     23  C   UNL     1      12.242   1.610   0.522  0.00  0.00    +0.162 C 
BRANCH  23  24
ATOM     24  C   UNL     1      12.294   2.362   1.842  0.00  0.00    +0.234 C 
ATOM     25  O   UNL     1      12.735   3.545   1.831  0.00  0.00    -0.274 OA
ATOM     26  N   UNL     1      11.991   1.715   3.087  0.00  0.00    -0.305 N 
ATOM     27  H   UNL     1      12.109   0.680   3.159  0.00  0.00    +0.149 HD
BRANCH  26  28
ATOM     28  C   UNL     1      11.710   2.477   4.301  0.00  0.00    +0.199 C 
BRANCH  28  29
ATOM     29  C   UNL     1      10.681   1.780   5.161  0.00  0.00    +0.228 C 
ATOM     30  N   UNL     1      10.964   1.541   6.542  0.00  0.00    -0.328 N 
ATOM     31  O   UNL     1       9.552   1.488   4.690  0.00  0.00    -0.274 OA
ATOM     32  H   UNL     1      11.759   2.035   7.002  0.00  0.00    +0.145 HD
ATOM     33  H   UNL     1      10.204   1.197   7.176  0.00  0.00    +0.145 HD
ENDBRANCH  28  29
ENDBRANCH  26  28
ENDBRANCH  23  24
ENDBRANCH  16  17
BRANCH  16  34
ATOM     34  C   UNL     1       9.128   2.560  -0.201  0.00  0.00    +0.033 C 
BRANCH  34  35
ATOM     35  C   UNL     1       9.442   2.242  -1.690  0.00  0.00    +0.026 C 
BRANCH  35  36
ATOM     36  C   UNL     1       8.167   2.127  -2.553  0.00  0.00    +0.145 C 
BRANCH  36  37
ATOM     37  N   UNL     1       8.413   2.341  -3.985  0.00  0.00    -0.253 NA
ATOM     38  C   UNL     1       9.034   1.565  -4.826  0.00  0.00    +0.188 C 
ATOM     39  N   UNL     1       9.675   0.339  -4.451  0.00  0.00    -0.370 N 
ATOM     40  N   UNL     1       9.050   1.923  -6.213  0.00  0.00    -0.370 N 
ATOM     41  H   UNL     1       9.572  -0.147  -3.541  0.00  0.00    +0.159 HD
ATOM     42  H   UNL     1       9.525  -0.116  -3.522  0.00  0.00    +0.159 HD
ATOM     43  H   UNL     1       8.332   2.581  -6.576  0.00  0.00    +0.159 HD
ATOM     44  H   UNL     1       8.229   2.341  -6.704  0.00  0.00    +0.159 HD
ENDBRANCH  36  37
ENDBRANCH  35  36
ENDBRANCH  34  35
ENDBRANCH  16  34
ENDBRANCH  14  16
ENDBRANCH  11  12
BRANCH  11  45
ATOM     45  C   UNL     1       6.503  -2.202   0.365  0.00  0.00    +0.034 C 
BRANCH  45  47
ATOM     46  C   UNL     1       6.010  -3.519  -1.769  0.00  0.00    +0.007 C 
ATOM     47  C   UNL     1       5.918  -3.498  -0.237  0.00  0.00    -0.015 C 
ATOM     48  C   UNL     1       6.658  -4.712   0.338  0.00  0.00    +0.007 C 
ENDBRANCH  45  47
ENDBRANCH  11  45
ENDBRANCH   7  11
ENDBRANCH   6   8
ENDBRANCH   2   6
ENDBRANCH   1   3
BRANCH   1  49
ATOM     49  N   UNL     1      -2.886  -1.032   0.919  0.00  0.00    -0.302 N 
ATOM     50  C   UNL     1      -3.172   0.363   1.094  0.00  0.00    +0.236 C 
ATOM     51  O   UNL     1      -2.584   1.228   0.378  0.00  0.00    -0.274 OA
ATOM     52  H   UNL     1      -3.326  -1.714   1.572  0.00  0.00    +0.150 HD
BRANCH  50  53
ATOM     53  CA  UNL     1      -4.146   0.837   2.140  0.00  0.00    +0.184 C 
BRANCH  53  54
ATOM     54  N   UNL     1      -5.354   0.010   2.157  0.00  0.00    -0.301 N 
ATOM     55  C   UNL     1      -6.290   0.022   1.066  0.00  0.00    +0.234 C 
ATOM     56  O   UNL     1      -5.894   0.301  -0.094  0.00  0.00    -0.274 OA
ATOM     57  H   UNL     1      -5.664  -0.426   3.052  0.00  0.00    +0.150 HD
BRANCH  55  58
ATOM     58  CA  UNL     1      -7.724  -0.386   1.311  0.00  0.00    +0.163 C 
BRANCH  58  59
ATOM     59  N   UNL     1      -8.634   0.294   0.383  0.00  0.00    -0.302 N 
ATOM     60  C   UNL     1     -10.001   0.548   0.732  0.00  0.00    +0.234 C 
ATOM     61  O   UNL     1     -10.564  -0.148   1.619  0.00  0.00    -0.274 OA
ATOM     62  H   UNL     1      -8.272   0.713  -0.507  0.00  0.00    +0.150 HD
BRANCH  60  63
ATOM     63  CA  UNL     1     -10.770   1.633   0.024  0.00  0.00    +0.165 C 
BRANCH  63  64
ATOM     64  N   UNL     1     -11.903   2.073   0.832  0.00  0.00    -0.302 N 
ATOM     65  C   UNL     1     -12.084   3.448   1.219  0.00  0.00    +0.234 C 
ATOM     66  O   UNL     1     -11.378   4.348   0.685  0.00  0.00    -0.274 OA
ATOM     67  H   UNL     1     -12.631   1.375   1.114  0.00  0.00    +0.150 HD
BRANCH  65  68
ATOM     68  CA  UNL     1     -13.178   3.799   2.188  0.00  0.00    +0.159 C 
ATOM     69  C   UNL     1     -12.992   3.111   3.572  0.00  0.00    +0.041 C 
ATOM     70  C   UNL     1     -12.639   4.218   4.578  0.00  0.00    +0.098 C 
ATOM     71  C   UNL     1     -12.932   5.457   3.831  0.00  0.00    +0.214 C 
ATOM     72  O   UNL     1     -12.986   6.597   4.350  0.00  0.00    -0.276 OA
ATOM     73  N   UNL     1     -13.216   5.223   2.465  0.00  0.00    -0.304 N 
ATOM     74  H   UNL     1     -13.467   5.957   1.766  0.00  0.00    +0.149 HD
ENDBRANCH  65  68
ENDBRANCH  63  64
BRANCH  63  75
ATOM     75  CB  UNL     1     -11.263   1.141  -1.347  0.00  0.00    +0.086 C 
BRANCH  75  76
ATOM     76  CG  UNL     1     -11.878   2.268  -2.122  0.00  0.00    +0.038 A 
ATOM     77  CD2 UNL     1     -13.205   2.637  -2.114  0.00  0.00    +0.133 A 
ATOM     78  NE2 UNL     1     -13.343   3.773  -2.827  0.00  0.00    -0.244 NA
ATOM     79  CE1 UNL     1     -12.090   4.070  -3.240  0.00  0.00    +0.196 A 
ATOM     80  ND1 UNL     1     -11.174   3.176  -2.815  0.00  0.00    -0.348 N 
ATOM     81  HD1 UNL     1     -10.137   3.208  -2.966  0.00  0.00    +0.166 HD
ENDBRANCH  75  76
ENDBRANCH  63  75
ENDBRANCH  60  63
ENDBRANCH  58  59
BRANCH  58  82
ATOM     82  CB  UNL     1      -7.897  -1.919   1.246  0.00  0.00    +0.069 C 
BRANCH  82  83
ATOM     83  CG  UNL     1      -7.436  -2.502  -0.055  0.00  0.00    -0.020 A 
ATOM     84  CD1 UNL     1      -6.176  -3.035  -0.307  0.00  0.00    +0.087 A 
ATOM     85  NE1 UNL     1      -6.077  -3.442  -1.594  0.00  0.00    -0.360 N 
ATOM     86  CE2 UNL     1      -7.274  -3.156  -2.156  0.00  0.00    +0.047 A 
ATOM     87  CZ2 UNL     1      -7.653  -3.381  -3.477  0.00  0.00    +0.026 A 
ATOM     88  CH2 UNL     1      -8.953  -2.992  -3.862  0.00  0.00    +0.002 A 
ATOM     89  CZ3 UNL     1      -9.825  -2.406  -2.926  0.00  0.00    +0.001 A 
ATOM     90  CE3 UNL     1      -9.422  -2.197  -1.596  0.00  0.00    +0.010 A 
ATOM     91  CD2 UNL     1      -8.122  -2.578  -1.248  0.00  0.00    +0.003 A 
ATOM     92  HE1 UNL     1      -5.267  -3.901  -2.049  0.00  0.00    +0.165 HD
ENDBRANCH  82  83
ENDBRANCH  58  82
ENDBRANCH  55  58
ENDBRANCH  53  54
BRANCH  53  93
ATOM     93  C   UNL     1      -3.470   0.826   3.517  0.00  0.00    +0.187 C 
BRANCH  93  94
ATOM     94  O   UNL     1      -2.406   1.742   3.539  0.00  0.00    -0.393 OA
ATOM     95  H   UNL     1      -1.934   1.590   4.394  0.00  0.00    +0.209 HD
ENDBRANCH  93  94
ENDBRANCH  53  93
ENDBRANCH  50  53
ENDBRANCH   1  49
BRANCH   1  96
ATOM     96  C   UNL     1      -2.253  -2.811  -0.681  0.00  0.00    +0.067 C 
BRANCH  96  97
ATOM     97  C   UNL     1      -1.326  -3.143  -1.816  0.00  0.00    -0.045 A 
ATOM     98  C   UNL     1      -1.544  -2.592  -3.090  0.00  0.00    +0.007 A 
ATOM     99  C   UNL     1      -0.622  -2.803  -4.115  0.00  0.00    +0.045 A 
ATOM    100  C   UNL     1       0.537  -3.546  -3.878  0.00  0.00    +0.117 A 
ATOM    101  C   UNL     1       0.749  -4.125  -2.616  0.00  0.00    +0.045 A 
ATOM    102  C   UNL     1      -0.183  -3.927  -1.594  0.00  0.00    +0.007 A 
BRANCH 100 103
ATOM    103  O   UNL     1       1.479  -3.697  -4.900  0.00  0.00    -0.507 OA
ATOM    104  H   UNL     1       2.389  -4.098  -4.725  0.00  0.00    +0.292 HD
ENDBRANCH 100 103
ENDBRANCH  96  97
ENDBRANCH   1  96
TORSDOF 33
