REMARK  Name = 
REMARK  40 active torsions:
REMARK  status: ('A' for Active; 'I' for Inactive)
REMARK    1  A    between atoms: C_1  and  C_2
REMARK    2  A    between atoms: C_2  and  C_3
REMARK    3  A    between atoms: C_2  and  C_4
REMARK    4  A    between atoms: C_4  and  C_5
REMARK    5  A    between atoms: C_5  and  N_6
REMARK    6  A    between atoms: C_5  and  C_67
REMARK    7  A    between atoms: C_7  and  C_9
REMARK    8  A    between atoms: C_9  and  C_10
REMARK    9  A    between atoms: C_9  and  N_16
REMARK   10  A    between atoms: C_10  and  O_11
REMARK   11  A    between atoms: O_11  and  C_12
REMARK   12  A    between atoms: C_12  and  C_13
REMARK   13  A    between atoms: C_12  and  C_14
REMARK   14  A    between atoms: C_12  and  C_15
REMARK   15  A    between atoms: C_17  and  C_19
REMARK   16  A    between atoms: C_19  and  C_20
REMARK   17  A    between atoms: C_19  and  N_28
REMARK   18  A    between atoms: C_20  and  C_21
REMARK   19  A    between atoms: C_24  and  O_25
REMARK   20  A    between atoms: C_29  and  CA_31
REMARK   21  A    between atoms: CA_31  and  C_32
REMARK   22  A    between atoms: CA_31  and  N_34
REMARK   23  A    between atoms: C_32  and  O_33
REMARK   24  A    between atoms: C_35  and  CA_37
REMARK   25  A    between atoms: CA_37  and  CB_38
REMARK   26  A    between atoms: CA_37  and  N_48
REMARK   27  A    between atoms: CB_38  and  CG_39
REMARK   28  A    between atoms: C_49  and  CA_51
REMARK   29  A    between atoms: CA_51  and  CB_52
REMARK   30  A    between atoms: CA_51  and  N_58
REMARK   31  A    between atoms: CB_52  and  CG_53
REMARK   32  A    between atoms: C_59  and  CA_61
REMARK   33  A    between atoms: N_69  and  C_70
REMARK   34  A    between atoms: C_70  and  C_71
REMARK   35  A    between atoms: C_70  and  C_78
REMARK   36  A    between atoms: C_71  and  C_72
REMARK   37  A    between atoms: C_72  and  C_73
REMARK   38  A    between atoms: C_73  and  N_74
REMARK   39  A    between atoms: C_84  and  C_85
REMARK   40  A    between atoms: N_87  and  N_88
REMARK                            x       y       z     vdW  Elec       q    Type
REMARK                         _______ _______ _______ _____ _____    ______ ____
ROOT
ATOM      1  C   UNL     1     -15.720  14.106   8.530  0.00  0.00    +0.163 C 
ENDROOT
BRANCH   1   3
ATOM      2  N   UNL     1     -15.622  15.589  10.485  0.00  0.00    -0.301 N 
ATOM      3  C   UNL     1     -16.355  15.051   9.508  0.00  0.00    +0.234 C 
ATOM      4  O   UNL     1     -17.524  15.447   9.398  0.00  0.00    -0.274 OA
ATOM      5  H   UNL     1     -16.231  16.092  11.099  0.00  0.00    +0.150 HD
BRANCH   2   6
ATOM      6  C   UNL     1     -14.194  15.641  10.712  0.00  0.00    +0.185 C 
BRANCH   6   8
ATOM      7  N   UNL     1     -14.289  18.439  10.895  0.00  0.00    -0.302 N 
ATOM      8  C   UNL     1     -13.602  17.292  10.304  0.00  0.00    +0.236 C 
ATOM      9  O   UNL     1     -12.443  17.512   9.931  0.00  0.00    -0.274 OA
ATOM     10  H   UNL     1     -13.509  19.093  11.041  0.00  0.00    +0.150 HD
BRANCH   7  11
ATOM     11  C   UNL     1     -15.465  18.392  12.148  0.00  0.00    +0.159 C 
BRANCH  11  12
ATOM     12  C   UNL     1     -16.261  19.586  12.123  0.00  0.00    +0.234 C 
ATOM     13  O   UNL     1     -17.503  19.490  12.184  0.00  0.00    -0.274 OA
ATOM     14  N   UNL     1     -15.602  20.750  12.321  0.00  0.00    -0.302 N 
ATOM     15  H   UNL     1     -16.325  21.423  12.450  0.00  0.00    +0.150 HD
BRANCH  14  16
ATOM     16  C   UNL     1     -14.209  21.023  12.843  0.00  0.00    +0.159 C 
BRANCH  16  17
ATOM     17  C   UNL     1     -13.944  21.690  14.520  0.00  0.00    +0.237 C 
ATOM     18  O   UNL     1     -12.933  21.417  15.183  0.00  0.00    -0.274 OA
ATOM     19  N   UNL     1     -14.754  22.651  15.092  0.00  0.00    -0.288 N 
ATOM     20  C   UNL     1     -16.023  23.053  14.537  0.00  0.00    +0.109 C 
ATOM     21  C   UNL     1     -15.840  24.459  14.081  0.00  0.00    +0.021 C 
ATOM     22  C   UNL     1     -14.869  24.934  15.135  0.00  0.00    +0.033 C 
ATOM     23  C   UNL     1     -14.066  23.771  15.742  0.00  0.00    +0.163 C 
BRANCH  23  24
ATOM     24  C   UNL     1     -13.949  23.610  17.272  0.00  0.00    +0.250 C 
ATOM     25  O   UNL     1     -13.451  22.611  17.799  0.00  0.00    -0.272 OA
ATOM     26  N   UNL     1     -14.377  24.629  18.082  0.00  0.00    -0.232 N 
ATOM     27  H   UNL     1     -14.405  24.431  19.078  0.00  0.00    +0.173 HD
BRANCH  26  28
ATOM     28  N   UNL     1     -14.894  25.838  17.638  0.00  0.00    -0.218 N 
ATOM     29  C   UNL     1     -15.543  26.703  18.443  0.00  0.00    +0.313 C 
ATOM     30  N   UNL     1     -16.022  27.786  17.776  0.00  0.00    -0.312 N 
ATOM     31  O   UNL     1     -15.678  26.550  19.660  0.00  0.00    -0.252 OA
ATOM     32  H   UNL     1     -14.505  26.268  16.812  0.00  0.00    +0.174 HD
ATOM     33  H   UNL     1     -16.514  28.477  18.324  0.00  0.00    +0.147 HD
ATOM     34  H   UNL     1     -16.074  27.871  16.768  0.00  0.00    +0.147 HD
ENDBRANCH  26  28
ENDBRANCH  23  24
ENDBRANCH  16  17
BRANCH  16  35
ATOM     35  C   UNL     1     -13.368  21.603  11.683  0.00  0.00    +0.033 C 
BRANCH  35  36
ATOM     36  C   UNL     1     -13.715  23.034  11.581  0.00  0.00    +0.026 C 
BRANCH  36  37
ATOM     37  C   UNL     1     -13.180  23.744  12.781  0.00  0.00    +0.145 C 
BRANCH  37  38
ATOM     38  N   UNL     1     -11.860  23.580  13.360  0.00  0.00    -0.253 NA
ATOM     39  C   UNL     1     -11.137  22.585  13.693  0.00  0.00    +0.188 C 
ATOM     40  N   UNL     1     -11.265  21.235  13.524  0.00  0.00    -0.370 N 
ATOM     41  N   UNL     1     -10.026  22.796  14.406  0.00  0.00    -0.370 N 
ATOM     42  H   UNL     1     -10.782  20.581  14.123  0.00  0.00    +0.159 HD
ATOM     43  H   UNL     1     -12.205  21.007  13.777  0.00  0.00    +0.159 HD
ATOM     44  H   UNL     1      -9.709  23.751  14.460  0.00  0.00    +0.159 HD
ATOM     45  H   UNL     1      -9.364  22.043  14.443  0.00  0.00    +0.159 HD
ENDBRANCH  37  38
ENDBRANCH  36  37
ENDBRANCH  35  36
ENDBRANCH  16  35
ENDBRANCH  14  16
ENDBRANCH  11  12
BRANCH  11  46
ATOM     46  C   UNL     1     -15.257  18.021  13.849  0.00  0.00    +0.034 C 
BRANCH  46  48
ATOM     47  C   UNL     1     -15.566  19.852  15.145  0.00  0.00    +0.007 C 
ATOM     48  C   UNL     1     -14.299  19.092  14.847  0.00  0.00    -0.015 C 
ATOM     49  C   UNL     1     -13.299  19.051  16.251  0.00  0.00    +0.007 C 
ENDBRANCH  46  48
ENDBRANCH  11  46
ENDBRANCH   7  11
ENDBRANCH   6   8
BRANCH   6  50
ATOM     50  C   UNL     1     -13.784  14.570  12.015  0.00  0.00    +0.192 C 
BRANCH  50  51
ATOM     51  O   UNL     1     -13.908  14.897  13.445  0.00  0.00    -0.372 OA
BRANCH  51  52
ATOM     52  C   UNL     1     -13.180  16.063  13.800  0.00  0.00    +0.061 C 
ATOM     53  C   UNL     1     -11.711  16.246  13.535  0.00  0.00    +0.041 C 
ATOM     54  C   UNL     1     -13.476  16.953  12.727  0.00  0.00    +0.041 C 
ATOM     55  C   UNL     1     -13.512  16.645  15.164  0.00  0.00    +0.041 C 
ENDBRANCH  51  52
ENDBRANCH  50  51
ENDBRANCH   6  50
ENDBRANCH   2   6
ENDBRANCH   1   3
BRANCH   1  56
ATOM     56  N   UNL     1     -14.457  13.480   8.908  0.00  0.00    -0.302 N 
ATOM     57  C   UNL     1     -13.195  13.900   8.736  0.00  0.00    +0.236 C 
ATOM     58  O   UNL     1     -12.369  13.339   9.475  0.00  0.00    -0.274 OA
ATOM     59  H   UNL     1     -14.474  12.874   9.724  0.00  0.00    +0.150 HD
BRANCH  57  60
ATOM     60  CA  UNL     1     -12.805  15.127   7.759  0.00  0.00    +0.184 C 
BRANCH  60  61
ATOM     61  N   UNL     1     -13.731  16.184   7.425  0.00  0.00    -0.301 N 
ATOM     62  C   UNL     1     -14.478  16.285   6.272  0.00  0.00    +0.234 C 
ATOM     63  O   UNL     1     -15.414  17.086   6.317  0.00  0.00    -0.274 OA
ATOM     64  H   UNL     1     -13.983  16.853   8.133  0.00  0.00    +0.150 HD
BRANCH  62  65
ATOM     65  CA  UNL     1     -14.290  15.248   5.083  0.00  0.00    +0.163 C 
BRANCH  65  66
ATOM     66  N   UNL     1     -14.966  14.075   5.529  0.00  0.00    -0.302 N 
ATOM     67  C   UNL     1     -14.697  12.772   5.586  0.00  0.00    +0.234 C 
ATOM     68  O   UNL     1     -15.600  12.180   6.231  0.00  0.00    -0.274 OA
ATOM     69  H   UNL     1     -15.931  14.321   5.781  0.00  0.00    +0.150 HD
BRANCH  67  70
ATOM     70  CA  UNL     1     -13.691  11.778   5.040  0.00  0.00    +0.165 C 
BRANCH  70  71
ATOM     71  N   UNL     1     -13.516  10.793   6.165  0.00  0.00    -0.302 N 
ATOM     72  C   UNL     1     -12.585  10.764   7.162  0.00  0.00    +0.234 C 
ATOM     73  O   UNL     1     -12.774  10.106   8.187  0.00  0.00    -0.274 OA
ATOM     74  H   UNL     1     -14.368  10.303   6.432  0.00  0.00    +0.150 HD
BRANCH  72  75
ATOM     75  CA  UNL     1     -11.307  11.577   6.966  0.00  0.00    +0.159 C 
ATOM     76  C   UNL     1     -11.649  12.979   6.764  0.00  0.00    +0.041 C 
ATOM     77  C   UNL     1     -10.705  13.733   5.882  0.00  0.00    +0.098 C 
ATOM     78  C   UNL     1     -10.297  12.587   5.025  0.00  0.00    +0.214 C 
ATOM     79  O   UNL     1      -9.861  12.698   3.952  0.00  0.00    -0.276 OA
ATOM     80  N   UNL     1     -10.589  11.407   5.749  0.00  0.00    -0.304 N 
ATOM     81  H   UNL     1     -10.517  10.508   5.320  0.00  0.00    +0.149 HD
ENDBRANCH  72  75
ENDBRANCH  70  71
BRANCH  70  82
ATOM     82  CB  UNL     1     -13.913  10.942   3.754  0.00  0.00    +0.086 C 
BRANCH  82  83
ATOM     83  CG  UNL     1     -15.222  10.252   3.492  0.00  0.00    +0.038 A 
ATOM     84  CD2 UNL     1     -16.388  10.349   4.180  0.00  0.00    +0.133 A 
ATOM     85  NE2 UNL     1     -17.444   9.690   3.686  0.00  0.00    -0.244 NA
ATOM     86  CE1 UNL     1     -16.960   9.164   2.601  0.00  0.00    +0.196 A 
ATOM     87  ND1 UNL     1     -15.599   9.359   2.509  0.00  0.00    -0.348 N 
ATOM     88  HD1 UNL     1     -15.008   8.888   1.844  0.00  0.00    +0.166 HD
ENDBRANCH  82  83
ENDBRANCH  70  82
ENDBRANCH  67  70
ENDBRANCH  65  66
BRANCH  65  89
ATOM     89  CB  UNL     1     -14.792  15.851   3.767  0.00  0.00    +0.069 C 
BRANCH  89  90
ATOM     90  CG  UNL     1     -15.944  15.282   2.940  0.00  0.00    -0.020 A 
ATOM     91  CD1 UNL     1     -16.448  15.874   1.798  0.00  0.00    +0.087 A 
ATOM     92  NE1 UNL     1     -17.505  15.133   1.303  0.00  0.00    -0.360 N 
ATOM     93  CE2 UNL     1     -17.823  14.112   2.152  0.00  0.00    +0.047 A 
ATOM     94  CZ2 UNL     1     -18.787  13.064   2.162  0.00  0.00    +0.026 A 
ATOM     95  CH2 UNL     1     -18.945  12.275   3.318  0.00  0.00    +0.002 A 
ATOM     96  CZ3 UNL     1     -18.212  12.550   4.428  0.00  0.00    +0.001 A 
ATOM     97  CE3 UNL     1     -17.121  13.343   4.171  0.00  0.00    +0.010 A 
ATOM     98  CD2 UNL     1     -16.921  14.272   3.181  0.00  0.00    +0.003 A 
ATOM     99  HE1 UNL     1     -18.079  15.384   0.518  0.00  0.00    +0.165 HD
ENDBRANCH  89  90
ENDBRANCH  65  89
ENDBRANCH  62  65
ENDBRANCH  60  61
BRANCH  60 100
ATOM    100  C   UNL     1     -11.354  15.635   8.024  0.00  0.00    +0.187 C 
BRANCH 100 101
ATOM    101  O   UNL     1     -10.312  14.786   8.523  0.00  0.00    -0.393 OA
ATOM    102  H   UNL     1     -10.680  14.117   9.141  0.00  0.00    +0.209 HD
ENDBRANCH 100 101
ENDBRANCH  60 100
ENDBRANCH  57  60
ENDBRANCH   1  56
BRANCH   1 103
ATOM    103  C   UNL     1     -16.818  13.112   8.110  0.00  0.00    +0.067 C 
BRANCH 103 104
ATOM    104  C   UNL     1     -16.545  11.690   8.593  0.00  0.00    -0.045 A 
ATOM    105  C   UNL     1     -16.456  10.547   7.778  0.00  0.00    +0.007 A 
ATOM    106  C   UNL     1     -15.876   9.356   8.193  0.00  0.00    +0.045 A 
ATOM    107  C   UNL     1     -15.540   9.240   9.520  0.00  0.00    +0.117 A 
ATOM    108  C   UNL     1     -15.721  10.306  10.389  0.00  0.00    +0.045 A 
ATOM    109  C   UNL     1     -16.232  11.515   9.933  0.00  0.00    +0.007 A 
BRANCH 107 110
ATOM    110  O   UNL     1     -15.080   8.062  10.016  0.00  0.00    -0.507 OA
ATOM    111  H   UNL     1     -15.028   7.441   9.271  0.00  0.00    +0.292 HD
ENDBRANCH 107 110
ENDBRANCH 103 104
ENDBRANCH   1 103
TORSDOF 35
