REMARK  Name = 
REMARK  4 active torsions:
REMARK  status: ('A' for Active; 'I' for Inactive)
REMARK    1  A    between atoms: C_1  and  N_2
REMARK    2  A    between atoms: C_4  and  C_5
REMARK    3  A    between atoms: N_7  and  C_8
REMARK    4  A    between atoms: N_16  and  C_17
REMARK                            x       y       z     vdW  Elec       q    Type
REMARK                         _______ _______ _______ _____ _____    ______ ____
ROOT
ATOM      1  C   UNL     1       1.414  -0.999  -1.696  0.00  0.00    +0.265 C 
ATOM      2  O   UNL     1       1.315  -1.992  -2.465  0.00  0.00    -0.268 OA
ATOM      3  N   UNL     1       0.312  -0.094  -1.544  0.00  0.00    -0.307 N 
ATOM      4  H   UNL     1       0.505   0.871  -1.193  0.00  0.00    +0.149 HD
ENDROOT
BRANCH   1   8
ATOM      5  C   UNL     1       6.233  -1.121  -0.717  0.00  0.00    +0.173 C 
ATOM      6  N   UNL     1       4.814  -0.819  -0.574  0.00  0.00    -0.266 N 
ATOM      7  N   UNL     1       3.885  -1.182  -1.451  0.00  0.00    -0.166 NA
ATOM      8  C   UNL     1       2.682  -0.765  -0.987  0.00  0.00    +0.155 A 
ATOM      9  C   UNL     1       2.869  -0.141   0.237  0.00  0.00    +0.032 A 
ATOM     10  C   UNL     1       1.990   0.388   1.185  0.00  0.00    +0.012 A 
ATOM     11  C   UNL     1       2.542   0.912   2.368  0.00  0.00    +0.001 A 
ATOM     12  C   UNL     1       3.938   0.880   2.585  0.00  0.00    +0.002 A 
ATOM     13  C   UNL     1       4.796   0.314   1.624  0.00  0.00    +0.028 A 
ATOM     14  C   UNL     1       4.220  -0.191   0.458  0.00  0.00    +0.069 A 
ENDBRANCH   1   8
BRANCH   3  15
ATOM     15  C   UNL     1      -1.063  -0.471  -1.890  0.00  0.00    +0.076 C 
ATOM     16  C   UNL     1      -1.968   0.854  -1.997  0.00  0.00    +0.041 C 
ATOM     17  C   UNL     1      -2.543   1.369  -0.606  0.00  0.00    +0.058 C 
ATOM     18  C   UNL     1      -4.130   1.390  -0.497  0.00  0.00    +0.019 C 
ATOM     19  C   UNL     1      -4.811   0.283   0.431  0.00  0.00    +0.003 C 
ATOM     20  C   UNL     1      -3.970  -1.028   0.722  0.00  0.00    +0.019 C 
ATOM     21  C   UNL     1      -2.604  -0.860   0.059  0.00  0.00    +0.058 C 
ATOM     22  C   UNL     1      -1.591  -1.562  -0.841  0.00  0.00    +0.041 C 
ATOM     23  N   UNL     1      -2.018   0.450   0.382  0.00  0.00    -0.299 NA
ATOM     24  C   UNL     1      -2.030   0.904   1.783  0.00  0.00    +0.105 C 
ENDBRANCH   3  15
TORSDOF 2
