REMARK  Name = 
REMARK  6 active torsions:
REMARK  status: ('A' for Active; 'I' for Inactive)
REMARK    1  A    between atoms: C_1  and  C_2
REMARK    2  A    between atoms: N_4  and  C_8
REMARK    3  A    between atoms: C_11  and  C_12
REMARK    4  A    between atoms: C_16  and  C_24
REMARK    5  A    between atoms: N_18  and  C_19
REMARK    6  A    between atoms: C_24  and  O_25
REMARK                            x       y       z     vdW  Elec       q    Type
REMARK                         _______ _______ _______ _____ _____    ______ ____
ROOT
ATOM      1  C   UNL     1      -0.800   0.793   0.110  0.00  0.00    +0.068 A 
ATOM      2  C   UNL     1      -0.299   2.120   0.082  0.00  0.00    +0.148 A 
ATOM      3  F   UNL     1      -1.106   3.176   0.353  0.00  0.00    -0.203 F 
ATOM      4  C   UNL     1       1.052   2.397  -0.222  0.00  0.00    -0.001 A 
ATOM      5  C   UNL     1       1.499   3.848  -0.208  0.00  0.00    +0.047 C 
ATOM      6  C   UNL     1       1.951   1.329  -0.527  0.00  0.00    +0.052 A 
ATOM      7  C   UNL     1       3.292   1.536  -0.959  0.00  0.00    +0.204 A 
ATOM      8  O   UNL     1       3.746   2.699  -1.126  0.00  0.00    -0.286 OA
ATOM      9  C   UNL     1       4.130   0.440  -1.236  0.00  0.00    +0.122 A 
ATOM     10  C   UNL     1       3.630  -0.848  -1.049  0.00  0.00    +0.105 A 
ATOM     11  N   UNL     1       2.364  -1.065  -0.591  0.00  0.00    -0.343 N 
ATOM     12  C   UNL     1       1.490  -0.010  -0.408  0.00  0.00    +0.055 A 
ATOM     13  C   UNL     1       0.128  -0.244  -0.122  0.00  0.00    +0.052 A 
ENDROOT
BRANCH   1  17
ATOM     14  C   UNL     1      -4.895  -1.402  -0.601  0.00  0.00    +0.025 C 
ATOM     15  C   UNL     1      -4.121  -1.202   0.719  0.00  0.00    +0.068 C 
ATOM     16  C   UNL     1      -2.622  -0.947   0.478  0.00  0.00    +0.123 C 
ATOM     17  N   UNL     1      -2.216   0.478   0.387  0.00  0.00    -0.325 N 
ATOM     18  C   UNL     1      -3.164   1.569   0.711  0.00  0.00    +0.120 C 
ATOM     19  C   UNL     1      -4.617   1.143   0.931  0.00  0.00    +0.100 C 
ATOM     20  N   UNL     1      -4.697  -0.163   1.576  0.00  0.00    -0.311 NA
ATOM     21  H   UNL     1      -5.706  -0.384   1.746  0.00  0.00    +0.122 HD
ENDBRANCH   1  17
BRANCH  11  22
ATOM     22  C   UNL     1       1.951  -2.470  -0.398  0.00  0.00    +0.087 C 
ATOM     23  C   UNL     1       1.596  -2.824   1.044  0.00  0.00    +0.027 C 
ATOM     24  C   UNL     1       2.900  -3.317   0.451  0.00  0.00    +0.027 C 
ENDBRANCH  11  22
BRANCH   9  25
ATOM     25  C   UNL     1       5.531   0.607  -1.719  0.00  0.00    +0.342 C 
ATOM     26  O   UNL     1       6.016   1.752  -1.923  0.00  0.00    -0.245 OA
BRANCH  25  27
ATOM     27  O   UNL     1       6.327  -0.511  -1.954  0.00  0.00    -0.477 OA
ATOM     28  H   UNL     1       7.281  -0.412  -2.282  0.00  0.00    +0.295 HD
ENDBRANCH  25  27
ENDBRANCH   9  25
TORSDOF 4
