REMARK  Name = 
REMARK  7 active torsions:
REMARK  status: ('A' for Active; 'I' for Inactive)
REMARK    1  A    between atoms: C_1  and  O_2
REMARK    2  A    between atoms: O_2  and  C_3
REMARK    3  A    between atoms: C_5  and  O_6
REMARK    4  A    between atoms: O_6  and  C_7
REMARK    5  A    between atoms: C_16  and  C_17
REMARK    6  A    between atoms: C_22  and  O_23
REMARK    7  A    between atoms: O_23  and  C_24
REMARK                            x       y       z     vdW  Elec       q    Type
REMARK                         _______ _______ _______ _____ _____    ______ ____
ROOT
ATOM      1  C   UNL     1       2.085  -1.016  -0.266  0.00  0.00    +0.138 A 
ATOM      2  C   UNL     1       3.239  -0.202  -0.183  0.00  0.00    +0.093 A 
ATOM      3  C   UNL     1       3.138   1.163   0.199  0.00  0.00    +0.145 A 
ATOM      4  C   UNL     1       1.872   1.708   0.497  0.00  0.00    +0.125 A 
ATOM      5 CL   UNL     1       1.693   3.390   0.969  0.00  0.00    -0.076 Cl
ATOM      6  C   UNL     1       0.753   0.883   0.408  0.00  0.00    +0.159 A 
ATOM      7  C   UNL     1       0.860  -0.428   0.045  0.00  0.00    +0.107 A 
ATOM      8  C   UNL     1      -0.484  -0.969   0.046  0.00  0.00    +0.221 C 
ATOM      9  O   UNL     1      -0.798  -2.130  -0.330  0.00  0.00    -0.287 OA
ATOM     10  C   UNL     1      -1.446   0.119   0.475  0.00  0.00    +0.231 C 
ATOM     11  O   UNL     1      -0.568   1.241   0.654  0.00  0.00    -0.467 OA
ATOM     12  C   UNL     1      -2.139  -0.201   1.833  0.00  0.00    +0.053 C 
ATOM     13  C   UNL     1      -2.902  -1.541   1.827  0.00  0.00    +0.013 C 
ATOM     14  C   UNL     1      -3.083   0.958   2.214  0.00  0.00    +0.087 C 
ATOM     15  C   UNL     1      -4.012   1.293   1.083  0.00  0.00    +0.160 C 
ATOM     16  O   UNL     1      -5.118   1.844   1.327  0.00  0.00    -0.293 OA
ATOM     17  C   UNL     1      -3.623   1.029  -0.314  0.00  0.00    +0.091 C 
ATOM     18  C   UNL     1      -2.443   0.455  -0.623  0.00  0.00    +0.152 C 
ENDROOT
BRANCH   1  20
ATOM     19  C   UNL     1       3.319  -3.068  -0.978  0.00  0.00    +0.277 C 
ATOM     20  O   UNL     1       2.127  -2.367  -0.640  0.00  0.00    -0.494 OA
ENDBRANCH   1  20
BRANCH   3  21
ATOM     21  O   UNL     1       4.264   1.997   0.290  0.00  0.00    -0.493 OA
ATOM     22  C   UNL     1       5.598   1.582   0.018  0.00  0.00    +0.277 C 
ENDBRANCH   3  21
BRANCH  18  23
ATOM     23  O   UNL     1      -2.066   0.206  -1.955  0.00  0.00    -0.495 OA
ATOM     24  C   UNL     1      -2.873   0.472  -3.098  0.00  0.00    +0.276 C 
ENDBRANCH  18  23
TORSDOF 3
