REMARK  Name = 
REMARK  8 active torsions:
REMARK  status: ('A' for Active; 'I' for Inactive)
REMARK    1  A    between atoms: C_1  and  O_2
REMARK    2  A    between atoms: O_2  and  C_3
REMARK    3  A    between atoms: C_8  and  O_9
REMARK    4  A    between atoms: O_9  and  C_10
REMARK    5  A    between atoms: C_10  and  C_11
REMARK    6  A    between atoms: C_11  and  O_12
REMARK    7  A    between atoms: C_11  and  C_13
REMARK    8  A    between atoms: C_13  and  O_14
REMARK                            x       y       z     vdW  Elec       q    Type
REMARK                         _______ _______ _______ _____ _____    ______ ____
ROOT
ATOM      1  C   UNL     1      -1.806  -0.158   0.192  0.00  0.00    +0.161 A 
ATOM      2  C   UNL     1      -2.772   0.755   0.660  0.00  0.00    +0.049 A 
ATOM      3  C   UNL     1      -2.565   2.129   0.527  0.00  0.00    +0.004 A 
ATOM      4  C   UNL     1      -1.400   2.607  -0.071  0.00  0.00    +0.004 A 
ATOM      5  C   UNL     1      -0.435   1.712  -0.539  0.00  0.00    +0.049 A 
ATOM      6  C   UNL     1      -0.629   0.322  -0.408  0.00  0.00    +0.162 A 
ENDROOT
BRANCH   1   8
ATOM      7  C   UNL     1      -3.111  -2.174   0.895  0.00  0.00    +0.277 C 
ATOM      8  O   UNL     1      -1.976  -1.547   0.308  0.00  0.00    -0.491 OA
ENDBRANCH   1   8
BRANCH   6   9
ATOM      9  O   UNL     1       0.312  -0.617  -0.864  0.00  0.00    -0.486 OA
BRANCH   9  10
ATOM     10  C   UNL     1       1.617  -0.317  -1.362  0.00  0.00    +0.262 C 
BRANCH  10  11
ATOM     11  C   UNL     1       2.574   0.078  -0.222  0.00  0.00    +0.177 C 
BRANCH  11  12
ATOM     12  O   UNL     1       3.819   0.469  -0.744  0.00  0.00    -0.386 OA
ATOM     13  H   UNL     1       4.206  -0.314  -1.217  0.00  0.00    +0.210 HD
ENDBRANCH  11  12
BRANCH  11  14
ATOM     14  C   UNL     1       2.748  -1.067   0.793  0.00  0.00    +0.190 C 
BRANCH  14  15
ATOM     15  O   UNL     1       3.639  -0.690   1.808  0.00  0.00    -0.392 OA
ATOM     16  H   UNL     1       3.144  -0.069   2.404  0.00  0.00    +0.210 HD
ENDBRANCH  14  15
ENDBRANCH  11  14
ENDBRANCH  10  11
ENDBRANCH   9  10
ENDBRANCH   6   9
TORSDOF 7
