REMARK  Name = 
REMARK  2 active torsions:
REMARK  status: ('A' for Active; 'I' for Inactive)
REMARK    1  A    between atoms: N_4  and  N_5
REMARK    2  A    between atoms: C_6  and  C_7
REMARK                            x       y       z     vdW  Elec       q    Type
REMARK                         _______ _______ _______ _____ _____    ______ ____
ROOT
ATOM      1  N   UNL     1      -0.852  -0.684   0.976  0.00  0.00    -0.154 NA
ATOM      2  C   UNL     1      -0.179   0.278   0.422  0.00  0.00    +0.145 C 
ENDROOT
BRANCH   1   6
ATOM      3  N   UNL     1      -2.994   0.082  -0.755  0.00  0.00    -0.369 N 
ATOM      4  C   UNL     1      -3.163  -0.122   0.653  0.00  0.00    +0.213 C 
ATOM      5  N   UNL     1      -4.452   0.067   1.236  0.00  0.00    -0.369 N 
ATOM      6  N   UNL     1      -2.182  -0.528   1.408  0.00  0.00    -0.114 NA
ATOM      7  H   UNL     1      -2.140  -0.236  -1.264  0.00  0.00    +0.159 HD
ATOM      8  H   UNL     1      -3.780   0.469  -1.323  0.00  0.00    +0.159 HD
ATOM      9  H   UNL     1      -5.260   0.371   0.649  0.00  0.00    +0.159 HD
ATOM     10  H   UNL     1      -4.602  -0.094   2.257  0.00  0.00    +0.159 HD
ENDBRANCH   1   6
BRANCH   2  11
ATOM     11  C   UNL     1       1.228   0.089  -0.006  0.00  0.00    +0.031 A 
ATOM     12  C   UNL     1       2.123   1.183   0.051  0.00  0.00    +0.051 A 
ATOM     13 CL   UNL     1       1.629   2.766   0.648  0.00  0.00    -0.083 Cl
ATOM     14  C   UNL     1       3.456   1.024  -0.344  0.00  0.00    +0.021 A 
ATOM     15  C   UNL     1       3.913  -0.209  -0.804  0.00  0.00    +0.003 A 
ATOM     16  C   UNL     1       3.040  -1.292  -0.882  0.00  0.00    +0.021 A 
ATOM     17  C   UNL     1       1.702  -1.157  -0.493  0.00  0.00    +0.051 A 
ATOM     18 CL   UNL     1       0.655  -2.559  -0.707  0.00  0.00    -0.083 Cl
ENDBRANCH   2  11
TORSDOF 2
