REMARK  Name = 
REMARK  2 active torsions:
REMARK  status: ('A' for Active; 'I' for Inactive)
REMARK    1  A    between atoms: N_4  and  C_5
REMARK    2  A    between atoms: C_5  and  C_6
REMARK                            x       y       z     vdW  Elec       q    Type
REMARK                         _______ _______ _______ _____ _____    ______ ____
ROOT
ATOM      1  C   UNL     1      -0.796  -0.050   0.897  0.00  0.00    +0.169 C 
ATOM      2  C   UNL     1      -0.243   1.275   0.441  0.00  0.00    +0.196 C 
ATOM      3  O   UNL     1       1.129   1.089   0.313  0.00  0.00    -0.346 OA
ATOM      4  C   UNL     1       1.314  -0.305   0.167  0.00  0.00    +0.171 C 
ATOM      5  C   UNL     1       1.659  -0.628  -1.302  0.00  0.00    +0.065 C 
ATOM      6  C   UNL     1       3.006  -0.021  -1.718  0.00  0.00    +0.005 C 
ATOM      7  C   UNL     1       4.130  -0.490  -0.787  0.00  0.00    +0.000 C 
ATOM      8  C   UNL     1       3.807  -0.157   0.674  0.00  0.00    +0.005 C 
ATOM      9  C   UNL     1       2.459  -0.762   1.093  0.00  0.00    +0.065 C 
ATOM     10  O   UNL     1       0.143  -1.011   0.521  0.00  0.00    -0.341 OA
ENDROOT
BRANCH   1  11
ATOM     11  C   UNL     1      -2.155  -0.377   0.272  0.00  0.00    +0.179 C 
BRANCH  11  15
ATOM     12  N   UNL     1      -4.935  -0.388  -0.549  0.00  0.00    -0.370 N 
ATOM     13  C   UNL     1      -4.399   0.616   0.324  0.00  0.00    +0.188 C 
ATOM     14  N   UNL     1      -5.255   1.651   0.808  0.00  0.00    -0.370 N 
ATOM     15  N   UNL     1      -3.148   0.610   0.687  0.00  0.00    -0.250 NA
ATOM     16  H   UNL     1      -5.941  -0.352  -0.827  0.00  0.00    +0.159 HD
ATOM     17  H   UNL     1      -4.355  -1.169  -0.924  0.00  0.00    +0.159 HD
ATOM     18  H   UNL     1      -6.259   1.685   0.522  0.00  0.00    +0.159 HD
ATOM     19  H   UNL     1      -4.887   2.390   1.448  0.00  0.00    +0.159 HD
ENDBRANCH  11  15
ENDBRANCH   1  11
TORSDOF 2
