REMARK  Name = 
REMARK  3 active torsions:
REMARK  status: ('A' for Active; 'I' for Inactive)
REMARK    1  A    between atoms: N_4  and  C_5
REMARK    2  A    between atoms: C_5  and  C_6
REMARK    3  A    between atoms: C_6  and  N_7
REMARK                            x       y       z     vdW  Elec       q    Type
REMARK                         _______ _______ _______ _____ _____    ______ ____
ROOT
ATOM      1  C   UNL     1       2.204  -0.240   0.189  0.00  0.00    +0.160 C 
ENDROOT
BRANCH   1   5
ATOM      2  N   UNL     1       4.645  -1.472   1.152  0.00  0.00    -0.370 N 
ATOM      3  C   UNL     1       4.642  -0.508   0.091  0.00  0.00    +0.188 C 
ATOM      4  N   UNL     1       5.878  -0.135  -0.519  0.00  0.00    -0.370 N 
ATOM      5  N   UNL     1       3.539   0.039  -0.333  0.00  0.00    -0.251 NA
ATOM      6  H   UNL     1       5.547  -1.892   1.469  0.00  0.00    +0.159 HD
ATOM      7  H   UNL     1       3.772  -1.779   1.632  0.00  0.00    +0.159 HD
ATOM      8  H   UNL     1       5.898   0.566  -1.293  0.00  0.00    +0.159 HD
ATOM      9  H   UNL     1       6.777  -0.558  -0.198  0.00  0.00    +0.159 HD
ENDBRANCH   1   5
BRANCH   1  10
ATOM     10  C   UNL     1       1.174   0.610  -0.557  0.00  0.00    +0.107 C 
BRANCH  10  11
ATOM     11  N   UNL     1      -0.182   0.378  -0.002  0.00  0.00    -0.301 NA
ATOM     12  C   UNL     1      -1.010   1.608  -0.075  0.00  0.00    +0.084 C 
ATOM     13  C   UNL     1      -2.129   1.601   0.988  0.00  0.00    +0.015 C 
ATOM     14  C   UNL     1      -3.550   1.343   0.453  0.00  0.00    +0.001 C 
ATOM     15  C   UNL     1      -3.704   0.252  -0.619  0.00  0.00    +0.000 C 
ATOM     16  C   UNL     1      -3.352  -1.175  -0.167  0.00  0.00    +0.001 C 
ATOM     17  C   UNL     1      -1.885  -1.446   0.223  0.00  0.00    +0.015 C 
ATOM     18  C   UNL     1      -0.828  -0.776  -0.679  0.00  0.00    +0.084 C 
ENDBRANCH  10  11
ENDBRANCH   1  10
TORSDOF 3
