REMARK  Name = 
REMARK  2 active torsions:
REMARK  status: ('A' for Active; 'I' for Inactive)
REMARK    1  A    between atoms: C_5  and  C_7
REMARK    2  A    between atoms: C_7  and  C_8
REMARK                            x       y       z     vdW  Elec       q    Type
REMARK                         _______ _______ _______ _____ _____    ______ ____
ROOT
ATOM      1  N   UNL     1       4.399   0.052   0.360  0.00  0.00    -0.372 N 
ATOM      2  C   UNL     1       3.025   0.001   0.742  0.00  0.00    +0.185 C 
ATOM      3  N   UNL     1       2.663   0.517   1.875  0.00  0.00    -0.270 NA
ATOM      4  N   UNL     1       2.060  -0.548  -0.170  0.00  0.00    -0.257 N 
ATOM      5  C   UNL     1       0.855  -1.214   0.240  0.00  0.00    +0.224 C 
ATOM      6  O   UNL     1       0.714  -1.604   1.430  0.00  0.00    -0.275 OA
ATOM      7  H   UNL     1       5.112   0.474   0.996  0.00  0.00    +0.159 HD
ATOM      8  H   UNL     1       4.709  -0.339  -0.557  0.00  0.00    +0.159 HD
ATOM      9  H   UNL     1       1.668   0.562   2.186  0.00  0.00    +0.190 HD
ATOM     10  H   UNL     1       2.293  -0.535  -1.188  0.00  0.00    +0.158 HD
ENDROOT
BRANCH   5  11
ATOM     11  C   UNL     1      -0.245  -1.459  -0.749  0.00  0.00    +0.134 C 
BRANCH  11  12
ATOM     12  C   UNL     1      -1.322  -0.404  -0.608  0.00  0.00    -0.002 A 
ATOM     13  C   UNL     1      -2.403  -0.591   0.287  0.00  0.00    +0.046 A 
ATOM     14 CL   UNL     1      -2.576  -2.050   1.260  0.00  0.00    -0.083 Cl
ATOM     15  C   UNL     1      -3.378   0.403   0.429  0.00  0.00    +0.020 A 
ATOM     16  C   UNL     1      -3.290   1.588  -0.299  0.00  0.00    +0.003 A 
ATOM     17  C   UNL     1      -2.223   1.793  -1.171  0.00  0.00    +0.020 A 
ATOM     18  C   UNL     1      -1.237   0.813  -1.329  0.00  0.00    +0.046 A 
ATOM     19 CL   UNL     1       0.089   1.158  -2.437  0.00  0.00    -0.083 Cl
ENDBRANCH  11  12
ENDBRANCH   5  11
TORSDOF 2
