REMARK  Name = 
REMARK  0 active torsions:
REMARK  status: ('A' for Active; 'I' for Inactive)
REMARK                            x       y       z     vdW  Elec       q    Type
REMARK                         _______ _______ _______ _____ _____    ______ ____
ROOT
ATOM      1  N   UNL     1       1.345  -0.198   0.385  0.00  0.00    -0.370 N 
ATOM      2  C   UNL     1       0.053   0.259  -0.013  0.00  0.00    +0.185 C 
ATOM      3  N   UNL     1      -1.009  -0.679  -0.202  0.00  0.00    -0.370 N 
ATOM      4  N   UNL     1      -0.150   1.524  -0.201  0.00  0.00    -0.269 NA
ATOM      5  H   UNL     1       1.523  -1.215   0.540  0.00  0.00    +0.159 HD
ATOM      6  H   UNL     1       2.127   0.479   0.526  0.00  0.00    +0.159 HD
ATOM      7  H   UNL     1      -0.845  -1.699  -0.051  0.00  0.00    +0.159 HD
ATOM      8  H   UNL     1      -1.960  -0.361  -0.493  0.00  0.00    +0.159 HD
ATOM      9  H   UNL     1      -1.083   1.892  -0.492  0.00  0.00    +0.190 HD
ENDROOT
TORSDOF 0
