REMARK  Name = 
REMARK  3 active torsions:
REMARK  status: ('A' for Active; 'I' for Inactive)
REMARK    1  A    between atoms: C_2  and  C_5
REMARK    2  A    between atoms: C_5  and  N_6
REMARK    3  A    between atoms: C_14  and  C_19
REMARK                            x       y       z     vdW  Elec       q    Type
REMARK                         _______ _______ _______ _____ _____    ______ ____
ROOT
ATOM      1  N   UNL     1      -2.106   0.870   0.570  0.00  0.00    -0.261 N 
ATOM      2  C   UNL     1      -1.380  -0.209   1.196  0.00  0.00    +0.046 A 
ATOM      3  C   UNL     1       0.027  -0.333   1.061  0.00  0.00    +0.023 A 
ATOM      4  C   UNL     1       0.685  -1.406   1.690  0.00  0.00    +0.032 A 
ATOM      5  C   UNL     1      -0.032  -2.345   2.434  0.00  0.00    +0.042 A 
ATOM      6 CL   UNL     1       0.808  -3.677   3.208  0.00  0.00    -0.084 Cl
ATOM      7  C   UNL     1      -1.414  -2.220   2.568  0.00  0.00    +0.022 A 
ATOM      8  C   UNL     1      -2.083  -1.159   1.958  0.00  0.00    +0.025 A 
ATOM      9  C   UNL     1       0.833   0.647   0.277  0.00  0.00    +0.075 C 
ATOM     10  N   UNL     1       0.661   1.931   0.424  0.00  0.00    -0.273 NA
ATOM     11  C   UNL     1      -0.330   2.548   1.298  0.00  0.00    +0.238 C 
ATOM     12  C   UNL     1      -1.698   2.236   0.779  0.00  0.00    +0.241 C 
ATOM     13  O   UNL     1      -2.481   3.185   0.499  0.00  0.00    -0.273 OA
ENDROOT
BRANCH   9  14
ATOM     14  C   UNL     1       1.877   0.176  -0.671  0.00  0.00    +0.001 A 
ATOM     15  C   UNL     1       3.001   0.978  -0.950  0.00  0.00    +0.010 A 
ATOM     16  C   UNL     1       3.977   0.541  -1.850  0.00  0.00    +0.001 A 
ATOM     17  C   UNL     1       3.841  -0.694  -2.488  0.00  0.00    +0.000 A 
ATOM     18  C   UNL     1       2.726  -1.493  -2.229  0.00  0.00    +0.001 A 
ATOM     19  C   UNL     1       1.747  -1.062  -1.329  0.00  0.00    +0.010 A 
ENDBRANCH   9  14
BRANCH   1  20
ATOM     20  C   UNL     1      -3.191   0.562  -0.375  0.00  0.00    +0.226 C 
BRANCH  20  22
ATOM     21  F   UNL     1      -3.693   0.174  -2.667  0.00  0.00    -0.169 F 
ATOM     22  C   UNL     1      -2.653   0.461  -1.802  0.00  0.00    +0.406 C 
ATOM     23  F   UNL     1      -1.710  -0.548  -1.884  0.00  0.00    -0.169 F 
ATOM     24  F   UNL     1      -2.072   1.658  -2.182  0.00  0.00    -0.169 F 
ENDBRANCH  20  22
ENDBRANCH   1  20
TORSDOF 3
