REMARK  Name = 
REMARK  7 active torsions:
REMARK  status: ('A' for Active; 'I' for Inactive)
REMARK    1  A    between atoms: O_1  and  C_2
REMARK    2  A    between atoms: C_2  and  C_20
REMARK    3  A    between atoms: N_5  and  C_6
REMARK    4  A    between atoms: C_6  and  C_7
REMARK    5  A    between atoms: C_7  and  C_8
REMARK    6  A    between atoms: C_8  and  C_9
REMARK    7  A    between atoms: C_9  and  C_11
REMARK                            x       y       z     vdW  Elec       q    Type
REMARK                         _______ _______ _______ _____ _____    ______ ____
ROOT
ATOM      1  C   UNL     1      -3.146   0.404  -0.948  0.00  0.00    +0.093 C 
ATOM      2  C   UNL     1      -2.209   1.374  -0.185  0.00  0.00    +0.055 C 
ATOM      3  C   UNL     1      -0.880   1.572  -0.925  0.00  0.00    +0.087 C 
ATOM      4  N   UNL     1      -0.185   0.278  -1.081  0.00  0.00    -0.302 NA
ATOM      5  C   UNL     1      -1.010  -0.644  -1.886  0.00  0.00    +0.087 C 
ATOM      6  C   UNL     1      -2.353  -0.911  -1.194  0.00  0.00    +0.055 C 
ENDROOT
BRANCH   1   7
ATOM      7  C   UNL     1      -4.447   0.096  -0.181  0.00  0.00    -0.016 A 
ATOM      8  C   UNL     1      -4.761   0.681   1.070  0.00  0.00    +0.008 A 
ATOM      9  C   UNL     1      -5.959   0.376   1.723  0.00  0.00    +0.020 A 
ATOM     10  C   UNL     1      -6.871  -0.508   1.146  0.00  0.00    +0.041 A 
ATOM     11 CL   UNL     1      -8.373  -0.886   1.970  0.00  0.00    -0.084 Cl
ATOM     12  C   UNL     1      -6.587  -1.086  -0.091  0.00  0.00    +0.020 A 
ATOM     13  C   UNL     1      -5.392  -0.786  -0.750  0.00  0.00    +0.008 A 
ENDBRANCH   1   7
BRANCH   1  14
ATOM     14  O   UNL     1      -3.479   1.021  -2.173  0.00  0.00    -0.384 OA
ATOM     15  H   UNL     1      -3.881   0.342  -2.775  0.00  0.00    +0.211 HD
ENDBRANCH   1  14
BRANCH   4  16
ATOM     16  C   UNL     1       1.144   0.461  -1.707  0.00  0.00    +0.085 C 
BRANCH  16  17
ATOM     17  C   UNL     1       2.206   0.839  -0.664  0.00  0.00    +0.023 C 
BRANCH  17  18
ATOM     18  C   UNL     1       2.332  -0.225   0.436  0.00  0.00    +0.081 C 
BRANCH  18  19
ATOM     19  C   UNL     1       3.448   0.118   1.386  0.00  0.00    +0.163 C 
ATOM     20  O   UNL     1       3.159   0.774   2.424  0.00  0.00    -0.292 OA
BRANCH  19  21
ATOM     21  C   UNL     1       4.868  -0.256   1.130  0.00  0.00    +0.018 A 
ATOM     22  C   UNL     1       5.843  -0.015   2.118  0.00  0.00    +0.014 A 
ATOM     23  C   UNL     1       7.181  -0.357   1.899  0.00  0.00    +0.039 A 
ATOM     24  C   UNL     1       7.566  -0.942   0.692  0.00  0.00    +0.123 A 
ATOM     25  F   UNL     1       8.864  -1.272   0.481  0.00  0.00    -0.205 F 
ATOM     26  C   UNL     1       6.613  -1.185  -0.299  0.00  0.00    +0.039 A 
ATOM     27  C   UNL     1       5.274  -0.846  -0.086  0.00  0.00    +0.014 A 
ENDBRANCH  19  21
ENDBRANCH  18  19
ENDBRANCH  17  18
ENDBRANCH  16  17
ENDBRANCH   4  16
TORSDOF 7
