REMARK  Name = 
REMARK  14 active torsions:
REMARK  status: ('A' for Active; 'I' for Inactive)
REMARK    1  A    between atoms: C_1  and  C_2
REMARK    2  A    between atoms: C_2  and  C_3
REMARK    3  A    between atoms: C_3  and  C_4
REMARK    4  A    between atoms: C_4  and  N_5
REMARK    5  A    between atoms: N_5  and  C_6
REMARK    6  A    between atoms: N_5  and  C_10
REMARK    7  A    between atoms: C_6  and  C_7
REMARK    8  A    between atoms: C_7  and  C_8
REMARK    9  A    between atoms: C_8  and  C_9
REMARK   10  A    between atoms: C_10  and  C_11
REMARK   11  A    between atoms: C_11  and  C_12
REMARK   12  A    between atoms: C_12  and  O_13
REMARK   13  A    between atoms: C_12  and  C_14
REMARK   14  A    between atoms: C_18  and  C_30
REMARK                            x       y       z     vdW  Elec       q    Type
REMARK                         _______ _______ _______ _____ _____    ______ ____
ROOT
ATOM      1  C   UNL     1      -1.365   1.334   1.462  0.00  0.00    -0.011 A 
ATOM      2  C   UNL     1      -1.829   0.101   0.917  0.00  0.00    -0.012 A 
ATOM      3  C   UNL     1      -1.259  -1.141   1.287  0.00  0.00    +0.009 A 
ATOM      4  C   UNL     1      -1.657  -2.329   0.687  0.00  0.00    +0.013 A 
ATOM      5  C   UNL     1      -2.632  -2.330  -0.307  0.00  0.00    +0.055 A 
ATOM      6  C   UNL     1      -3.267  -1.127  -0.637  0.00  0.00    +0.021 A 
ATOM      7  C   UNL     1      -2.900   0.104  -0.032  0.00  0.00    -0.009 A 
ATOM      8  C   UNL     1      -3.563   1.332  -0.352  0.00  0.00    -0.007 A 
ATOM      9  C   UNL     1      -4.679   1.398  -1.226  0.00  0.00    +0.029 A 
ATOM     10  C   UNL     1      -5.297   2.613  -1.520  0.00  0.00    +0.043 A 
ATOM     11 CL   UNL     1      -6.674   2.659  -2.611  0.00  0.00    -0.083 Cl
ATOM     12  C   UNL     1      -4.834   3.791  -0.949  0.00  0.00    +0.040 A 
ATOM     13  C   UNL     1      -3.747   3.771  -0.076  0.00  0.00    +0.050 A 
ATOM     14 CL   UNL     1      -3.235   5.319   0.603  0.00  0.00    -0.083 Cl
ATOM     15  C   UNL     1      -3.107   2.545   0.235  0.00  0.00    +0.001 A 
ATOM     16  C   UNL     1      -2.018   2.522   1.113  0.00  0.00    +0.016 A 
ENDROOT
BRANCH   5  17
ATOM     17  C   UNL     1      -3.077  -3.625  -0.946  0.00  0.00    +0.417 C 
ATOM     18  F   UNL     1      -3.362  -3.427  -2.285  0.00  0.00    -0.166 F 
ATOM     19  F   UNL     1      -2.090  -4.592  -0.855  0.00  0.00    -0.166 F 
ATOM     20  F   UNL     1      -4.213  -4.081  -0.304  0.00  0.00    -0.166 F 
ENDBRANCH   5  17
BRANCH   1  21
ATOM     21  C   UNL     1      -0.122   1.475   2.349  0.00  0.00    +0.146 C 
BRANCH  21  22
ATOM     22  O   UNL     1      -0.441   2.221   3.495  0.00  0.00    -0.387 OA
ATOM     23  H   UNL     1      -1.038   1.654   4.051  0.00  0.00    +0.210 HD
ENDBRANCH  21  22
BRANCH  21  24
ATOM     24  C   UNL     1       1.037   2.180   1.608  0.00  0.00    +0.051 C 
BRANCH  24  25
ATOM     25  C   UNL     1       1.377   1.569   0.236  0.00  0.00    +0.087 C 
BRANCH  25  26
ATOM     26  N   UNL     1       1.636   0.114   0.328  0.00  0.00    -0.302 NA
BRANCH  26  27
ATOM     27  C   UNL     1       2.986  -0.225   0.841  0.00  0.00    +0.084 C 
BRANCH  27  28
ATOM     28  C   UNL     1       2.866  -0.848   2.238  0.00  0.00    +0.015 C 
BRANCH  28  30
ATOM     29  C   UNL     1       4.441  -2.851   2.132  0.00  0.00    +0.004 C 
ATOM     30  C   UNL     1       4.191  -1.461   2.723  0.00  0.00    -0.002 C 
ENDBRANCH  28  30
ENDBRANCH  27  28
ENDBRANCH  26  27
BRANCH  26  31
ATOM     31  C   UNL     1       1.300  -0.601  -0.926  0.00  0.00    +0.084 C 
BRANCH  31  32
ATOM     32  C   UNL     1       2.107  -0.116  -2.150  0.00  0.00    +0.015 C 
BRANCH  32  33
ATOM     33  C   UNL     1       1.759  -0.947  -3.391  0.00  0.00    -0.002 C 
ATOM     34  C   UNL     1       2.559  -0.488  -4.606  0.00  0.00    +0.004 C 
ENDBRANCH  32  33
ENDBRANCH  31  32
ENDBRANCH  26  31
ENDBRANCH  25  26
ENDBRANCH  24  25
ENDBRANCH  21  24
ENDBRANCH   1  21
TORSDOF 12
