REMARK  Name = 
REMARK  3 active torsions:
REMARK  status: ('A' for Active; 'I' for Inactive)
REMARK    1  A    between atoms: C_9  and  O_10
REMARK    2  A    between atoms: O_10  and  C_11
REMARK    3  A    between atoms: C_11  and  C_12
REMARK                            x       y       z     vdW  Elec       q    Type
REMARK                         _______ _______ _______ _____ _____    ______ ____
ROOT
ATOM      1 CL   UNL     1       3.253  -0.749  -0.662  0.00  0.00    -0.080 Cl
ATOM      2  C   UNL     1       1.728  -0.041  -0.238  0.00  0.00    +0.084 A 
ATOM      3  C   UNL     1       0.712  -0.992  -0.100  0.00  0.00    +0.045 A 
ATOM      4  C   UNL     1      -0.620  -0.603   0.001  0.00  0.00    +0.061 A 
ATOM      5 CL   UNL     1      -1.801  -1.860   0.048  0.00  0.00    -0.082 Cl
ATOM      6  C   UNL     1      -0.944   0.751   0.009  0.00  0.00    +0.063 A 
ATOM      7 CL   UNL     1      -2.582   1.299   0.048  0.00  0.00    -0.082 Cl
ATOM      8  C   UNL     1       0.077   1.711  -0.031  0.00  0.00    +0.068 A 
ATOM      9  C   UNL     1       1.431   1.329  -0.138  0.00  0.00    +0.142 A 
ENDROOT
BRANCH   9  10
ATOM     10  O   UNL     1       2.276   2.413  -0.127  0.00  0.00    -0.478 OA
BRANCH  10  11
ATOM     11  C   UNL     1       3.689   2.223   0.013  0.00  0.00    +0.318 C 
BRANCH  11  12
ATOM     12  C   UNL     1       4.010   1.400   1.249  0.00  0.00    -0.050 C 
ATOM     13  C   UNL     1       4.286   0.694   2.310  0.00  0.00    -0.027 C 
ATOM     14  I   UNL     1       4.717  -0.435   3.996  0.00  0.00    +0.018 I 
ENDBRANCH  11  12
ENDBRANCH  10  11
ENDBRANCH   9  10
TORSDOF 3
