REMARK  Name = 
REMARK  10 active torsions:
REMARK  status: ('A' for Active; 'I' for Inactive)
REMARK    1  A    between atoms: C_7  and  C_8
REMARK    2  A    between atoms: C_9  and  O_10
REMARK    3  A    between atoms: C_9  and  C_15
REMARK    4  A    between atoms: O_10  and  C_11
REMARK    5  A    between atoms: C_11  and  C_13
REMARK    6  A    between atoms: C_13  and  C_14
REMARK    7  A    between atoms: C_15  and  C_17
REMARK    8  A    between atoms: C_19  and  C_20
REMARK    9  A    between atoms: C_22  and  O_23
REMARK   10  A    between atoms: C_26  and  C_27
REMARK                            x       y       z     vdW  Elec       q    Type
REMARK                         _______ _______ _______ _____ _____    ______ ____
ROOT
ATOM      1  C   UNL     1       3.212   0.364  -2.273  0.00  0.00    +0.194 C 
ATOM      2  F   UNL     1       3.375  -0.886  -2.851  0.00  0.00    -0.241 F 
ATOM      3  C   UNL     1       1.735   0.579  -1.975  0.00  0.00    +0.048 C 
ATOM      4  C   UNL     1       1.289  -0.206  -0.727  0.00  0.00    +0.037 C 
ATOM      5  C   UNL     1      -0.272  -0.205  -0.604  0.00  0.00    +0.006 C 
ATOM      6  C   UNL     1      -0.988   1.124  -0.898  0.00  0.00    +0.012 C 
ATOM      7  C   UNL     1      -2.335   1.075  -0.150  0.00  0.00    +0.038 C 
ATOM      8  C   UNL     1      -2.546   2.344   0.696  0.00  0.00    +0.012 C 
ATOM      9  C   UNL     1      -2.374  -0.311   0.599  0.00  0.00    +0.180 C 
ATOM     10  C   UNL     1      -0.840  -0.685   0.747  0.00  0.00    +0.021 C 
ATOM     11  C   UNL     1      -0.633  -2.219   0.882  0.00  0.00    +0.016 C 
ATOM     12  C   UNL     1      -0.108   0.026   1.950  0.00  0.00    +0.045 C 
ATOM     13  C   UNL     1       1.163   0.845   1.611  0.00  0.00    +0.154 C 
ATOM     14  C   UNL     1       2.098   0.128   0.590  0.00  0.00    +0.153 C 
ATOM     15  F   UNL     1       2.431  -1.097   1.160  0.00  0.00    -0.238 F 
ATOM     16  C   UNL     1       3.480   0.892   0.322  0.00  0.00    +0.047 C 
ATOM     17  C   UNL     1       3.327   2.434   0.295  0.00  0.00    +0.023 C 
ATOM     18  C   UNL     1       4.464   0.601   1.469  0.00  0.00    -0.009 C 
ATOM     19  C   UNL     1       5.762   0.354   1.284  0.00  0.00    +0.047 C 
ATOM     20  C   UNL     1       6.302   0.216  -0.061  0.00  0.00    +0.179 C 
ATOM     21  O   UNL     1       7.538   0.045  -0.236  0.00  0.00    -0.288 OA
ATOM     22  C   UNL     1       5.390   0.230  -1.201  0.00  0.00    +0.054 C 
ATOM     23  C   UNL     1       4.074   0.457  -1.039  0.00  0.00    -0.020 C 
ENDROOT
BRANCH   9  24
ATOM     24  C   UNL     1      -3.165  -0.356   1.939  0.00  0.00    +0.192 C 
ATOM     25  O   UNL     1      -2.997   0.512   2.781  0.00  0.00    -0.292 OA
BRANCH  24  26
ATOM     26  C   UNL     1      -4.224  -1.393   2.264  0.00  0.00    +0.187 C 
ATOM     27 CL   UNL     1      -3.692  -3.073   2.005  0.00  0.00    -0.117 Cl
ENDBRANCH  24  26
ENDBRANCH   9  24
BRANCH  13  28
ATOM     28  O   UNL     1       1.829   1.175   2.804  0.00  0.00    -0.389 OA
ATOM     29  H   UNL     1       2.048   0.331   3.279  0.00  0.00    +0.210 HD
ENDBRANCH  13  28
BRANCH   9  30
ATOM     30  O   UNL     1      -2.957  -1.268  -0.314  0.00  0.00    -0.449 OA
BRANCH  30  31
ATOM     31  C   UNL     1      -4.240  -1.221  -0.886  0.00  0.00    +0.308 C 
ATOM     32  O   UNL     1      -5.047  -0.291  -0.612  0.00  0.00    -0.251 OA
BRANCH  31  33
ATOM     33  C   UNL     1      -4.646  -2.288  -1.851  0.00  0.00    +0.117 C 
ATOM     34  C   UNL     1      -4.650  -1.750  -3.280  0.00  0.00    +0.015 C 
ENDBRANCH  31  33
ENDBRANCH  30  31
ENDBRANCH   9  30
TORSDOF 6
