REMARK  Name = 
REMARK  3 active torsions:
REMARK  status: ('A' for Active; 'I' for Inactive)
REMARK    1  A    between atoms: C_1  and  C_2
REMARK    2  A    between atoms: C_2  and  C_3
REMARK    3  A    between atoms: C_3  and  C_12
REMARK                            x       y       z     vdW  Elec       q    Type
REMARK                         _______ _______ _______ _____ _____    ______ ____
ROOT
ATOM      1  C   UNL     1      -1.236  -0.153   0.005  0.00  0.00    +0.144 C 
ATOM      2  C   UNL     1      -1.498   0.859   1.112  0.00  0.00    +0.240 C 
ATOM      3  O   UNL     1      -0.839   0.788   2.186  0.00  0.00    -0.274 OA
ATOM      4  N   UNL     1      -2.541   1.834   1.011  0.00  0.00    -0.239 N 
ATOM      5  C   UNL     1      -3.283   1.998  -0.194  0.00  0.00    +0.312 C 
ATOM      6  O   UNL     1      -4.231   2.825  -0.242  0.00  0.00    -0.252 OA
ATOM      7  N   UNL     1      -2.935   1.243  -1.349  0.00  0.00    -0.239 N 
ATOM      8  C   UNL     1      -1.863   0.297  -1.313  0.00  0.00    +0.240 C 
ATOM      9  O   UNL     1      -1.466  -0.210  -2.399  0.00  0.00    -0.274 OA
ATOM     10  H   UNL     1      -2.756   2.442   1.833  0.00  0.00    +0.159 HD
ATOM     11  H   UNL     1      -3.432   1.424  -2.250  0.00  0.00    +0.159 HD
ENDROOT
BRANCH   1  12
ATOM     12  C   UNL     1       0.304  -0.256  -0.163  0.00  0.00    -0.050 C 
ATOM     13  C   UNL     1       1.022  -1.277   0.374  0.00  0.00    -0.026 C 
ATOM     14  C   UNL     1       2.515  -1.421   0.235  0.00  0.00    +0.027 C 
ATOM     15  C   UNL     1       3.269  -0.346   1.025  0.00  0.00    +0.004 C 
ATOM     16  C   UNL     1       3.335   0.992   0.281  0.00  0.00    +0.001 C 
ATOM     17  C   UNL     1       1.964   1.659   0.120  0.00  0.00    +0.004 C 
ATOM     18  C   UNL     1       1.038   0.899  -0.843  0.00  0.00    +0.032 C 
ENDBRANCH   1  12
BRANCH   1  20
ATOM     19  C   UNL     1      -1.858  -2.627  -0.574  0.00  0.00    +0.005 C 
ATOM     20  C   UNL     1      -1.953  -1.474   0.436  0.00  0.00    +0.026 C 
ENDBRANCH   1  20
TORSDOF 2
