REMARK  Name = 
REMARK  7 active torsions:
REMARK  status: ('A' for Active; 'I' for Inactive)
REMARK    1  A    between atoms: C_4  and  O_5
REMARK    2  A    between atoms: O_5  and  C_6
REMARK    3  A    between atoms: C_6  and  C_7
REMARK    4  A    between atoms: N_16  and  C_17
REMARK    5  A    between atoms: C_23  and  O_24
REMARK    6  A    between atoms: O_24  and  C_25
REMARK    7  A    between atoms: C_25  and  C_26
REMARK                            x       y       z     vdW  Elec       q    Type
REMARK                         _______ _______ _______ _____ _____    ______ ____
ROOT
ATOM      1  C   UNL     1       0.074   0.840   1.333  0.00  0.00    +0.229 C 
ATOM      2  O   UNL     1       1.300   1.014   0.612  0.00  0.00    -0.480 OA
ATOM      3  C   UNL     1       1.554  -0.080  -0.189  0.00  0.00    +0.167 A 
ATOM      4  C   UNL     1       2.524  -0.201  -1.195  0.00  0.00    +0.173 A 
ATOM      5  C   UNL     1       2.483  -1.350  -2.008  0.00  0.00    +0.050 A 
ATOM      6  C   UNL     1       1.420  -2.270  -1.887  0.00  0.00    +0.008 A 
ATOM      7  C   UNL     1       0.452  -2.102  -0.880  0.00  0.00    -0.038 A 
ATOM      8  C   UNL     1       0.637  -1.064   0.035  0.00  0.00    +0.012 A 
ATOM      9  C   UNL     1      -0.306  -0.677   1.132  0.00  0.00    +0.049 C 
ATOM     10  C   UNL     1      -0.022  -1.532   2.407  0.00  0.00    +0.031 C 
ATOM     11  C   UNL     1      -1.062  -2.647   2.635  0.00  0.00    +0.085 C 
ATOM     12  N   UNL     1      -1.409  -3.342   1.378  0.00  0.00    -0.301 NA
ATOM     13  C   UNL     1      -2.409  -4.391   1.633  0.00  0.00    +0.105 C 
ATOM     14  C   UNL     1      -1.817  -2.456   0.247  0.00  0.00    +0.068 C 
ATOM     15  C   UNL     1      -0.888  -2.799  -0.953  0.00  0.00    +0.055 C 
ATOM     16  C   UNL     1      -1.740  -0.937   0.622  0.00  0.00    +0.043 C 
ATOM     17  C   UNL     1      -2.071  -0.001  -0.519  0.00  0.00    -0.021 C 
ATOM     18  C   UNL     1      -1.686   1.282  -0.449  0.00  0.00    +0.017 C 
ATOM     19  C   UNL     1      -1.011   1.812   0.801  0.00  0.00    +0.240 C 
ENDROOT
BRANCH   4  20
ATOM     20  O   UNL     1       3.516   0.764  -1.415  0.00  0.00    -0.422 OA
BRANCH  20  21
ATOM     21  C   UNL     1       3.311   2.146  -1.332  0.00  0.00    +0.309 C 
ATOM     22  C   UNL     1       4.489   3.058  -1.273  0.00  0.00    +0.136 C 
ATOM     23  O   UNL     1       2.151   2.635  -1.409  0.00  0.00    -0.251 OA
ENDBRANCH  20  21
ENDBRANCH   4  20
BRANCH  19  24
ATOM     24  O   UNL     1      -0.423   3.089   0.549  0.00  0.00    -0.454 OA
BRANCH  24  25
ATOM     25  C   UNL     1      -1.167   4.258   0.356  0.00  0.00    +0.305 C 
ATOM     26  C   UNL     1      -0.462   5.531   0.036  0.00  0.00    +0.136 C 
ATOM     27  O   UNL     1      -2.427   4.239   0.412  0.00  0.00    -0.251 OA
ENDBRANCH  24  25
ENDBRANCH  19  24
TORSDOF 4
