REMARK  Name = 
REMARK  6 active torsions:
REMARK  status: ('A' for Active; 'I' for Inactive)
REMARK    1  A    between atoms: C_1  and  O_2
REMARK    2  A    between atoms: O_2  and  C_3
REMARK    3  A    between atoms: C_4  and  O_5
REMARK    4  A    between atoms: C_7  and  C_10
REMARK    5  A    between atoms: C_15  and  O_16
REMARK    6  A    between atoms: C_18  and  O_19
REMARK                            x       y       z     vdW  Elec       q    Type
REMARK                         _______ _______ _______ _____ _____    ______ ____
ROOT
ATOM      1  C   UNL     1      -0.405  -1.744  -0.605  0.00  0.00    +0.211 C 
ATOM      2  C   UNL     1      -0.521  -1.247  -2.057  0.00  0.00    +0.129 C 
ATOM      3  C   UNL     1      -1.047   0.156  -2.086  0.00  0.00    +0.174 C 
ATOM      4  O   UNL     1      -0.475   1.020  -2.802  0.00  0.00    -0.292 OA
ATOM      5  C   UNL     1      -2.191   0.501  -1.214  0.00  0.00    +0.101 A 
ATOM      6  C   UNL     1      -3.052   1.606  -1.436  0.00  0.00    +0.134 A 
ATOM      7  C   UNL     1      -4.058   1.893  -0.505  0.00  0.00    +0.091 A 
ATOM      8  C   UNL     1      -4.255   1.074   0.611  0.00  0.00    +0.124 A 
ATOM      9  C   UNL     1      -3.437  -0.039   0.807  0.00  0.00    +0.092 A 
ATOM     10  C   UNL     1      -2.405  -0.325  -0.091  0.00  0.00    +0.139 A 
ATOM     11  O   UNL     1      -1.584  -1.437   0.152  0.00  0.00    -0.483 OA
ENDROOT
BRANCH   1  15
ATOM     12  C   UNL     1       3.207  -0.187   1.234  0.00  0.00    +0.161 A 
ATOM     13  C   UNL     1       2.019   0.555   1.290  0.00  0.00    +0.159 A 
ATOM     14  C   UNL     1       0.846   0.056   0.707  0.00  0.00    +0.056 A 
ATOM     15  C   UNL     1       0.840  -1.198   0.069  0.00  0.00    -0.003 A 
ATOM     16  C   UNL     1       2.038  -1.929   0.002  0.00  0.00    +0.011 A 
ATOM     17  C   UNL     1       3.208  -1.434   0.583  0.00  0.00    +0.050 A 
BRANCH  12  19
ATOM     18  C   UNL     1       5.628  -0.299   1.852  0.00  0.00    +0.277 C 
ATOM     19  O   UNL     1       4.359   0.347   1.831  0.00  0.00    -0.491 OA
ENDBRANCH  12  19
BRANCH  13  20
ATOM     20  O   UNL     1       2.013   1.795   1.927  0.00  0.00    -0.503 OA
ATOM     21  H   UNL     1       1.172   2.357   1.987  0.00  0.00    +0.292 HD
ENDBRANCH  13  20
ENDBRANCH   1  15
BRANCH   6  22
ATOM     22  O   UNL     1      -2.972   2.417  -2.570  0.00  0.00    -0.506 OA
ATOM     23  H   UNL     1      -2.418   2.192  -3.384  0.00  0.00    +0.292 HD
ENDBRANCH   6  22
BRANCH   8  24
ATOM     24  O   UNL     1      -5.265   1.354   1.529  0.00  0.00    -0.507 OA
ATOM     25  H   UNL     1      -5.878   2.153   1.415  0.00  0.00    +0.292 HD
ENDBRANCH   8  24
TORSDOF 5
