REMARK  Name = 
REMARK  8 active torsions:
REMARK  status: ('A' for Active; 'I' for Inactive)
REMARK    1  A    between atoms: C_3  and  C_4
REMARK    2  A    between atoms: C_3  and  C_5
REMARK    3  A    between atoms: CA_6  and  C_25
REMARK    4  A    between atoms: CA_10  and  N_11
REMARK    5  A    between atoms: CA_14  and  C_19
REMARK    6  A    between atoms: C_16  and  C_17
REMARK    7  A    between atoms: C_16  and  C_18
REMARK    8  A    between atoms: C_25  and  O_26
REMARK                            x       y       z     vdW  Elec       q    Type
REMARK                         _______ _______ _______ _____ _____    ______ ____
ROOT
ATOM      1  N   UNL     1       0.308  -0.189  -0.034  0.00  0.00    -0.268 N 
ATOM      2  C   UNL     1       0.876   1.110  -0.110  0.00  0.00    +0.239 C 
ATOM      3  O   UNL     1       0.621   2.023   0.714  0.00  0.00    -0.273 OA
ATOM      4  CA  UNL     1       1.814   1.286  -1.251  0.00  0.00    +0.173 C 
ATOM      5  N   UNL     1       1.651   0.034  -2.005  0.00  0.00    -0.282 NA
ATOM      6  C   UNL     1       0.956  -0.944  -1.121  0.00  0.00    +0.084 C 
ATOM      7  C   UNL     1       2.019  -1.897  -0.547  0.00  0.00    +0.049 C 
ATOM      8  C   UNL     1      -0.081  -1.718  -1.964  0.00  0.00    +0.049 C 
ATOM      9  H   UNL     1       1.056   0.276  -2.833  0.00  0.00    +0.125 HD
ENDROOT
BRANCH   1  19
ATOM     10  C   UNL     1      -1.239  -0.043   1.913  0.00  0.00    +0.165 C 
ATOM     11  S   UNL     1      -2.155   1.281   1.040  0.00  0.00    -0.127 S 
ATOM     12  C   UNL     1      -3.663   0.219   0.750  0.00  0.00    +0.042 C 
ATOM     13  C   UNL     1      -3.625  -0.247  -0.719  0.00  0.00    +0.025 C 
ATOM     14  C   UNL     1      -4.919   1.090   0.936  0.00  0.00    +0.025 C 
ATOM     15  CA  UNL     1      -3.554  -1.018   1.707  0.00  0.00    +0.201 C 
ATOM     16  N   UNL     1      -2.116  -1.176   1.835  0.00  0.00    -0.271 N 
ATOM     17  C   UNL     1      -1.023  -1.955   1.212  0.00  0.00    +0.240 C 
ATOM     18  O   UNL     1      -0.887  -3.168   0.878  0.00  0.00    -0.273 OA
ATOM     19  CA  UNL     1      -0.120  -0.740   1.274  0.00  0.00    +0.194 C 
BRANCH  15  20
ATOM     20  C   UNL     1      -4.139  -0.854   3.101  0.00  0.00    +0.327 C 
ATOM     21  OXT UNL     1      -5.311  -0.385   3.249  0.00  0.00    -0.249 OA
BRANCH  20  22
ATOM     22  O   UNL     1      -3.432  -1.314   4.237  0.00  0.00    -0.479 OA
ATOM     23  H   UNL     1      -2.503  -1.707   4.144  0.00  0.00    +0.295 HD
ENDBRANCH  20  22
ENDBRANCH  15  20
ENDBRANCH   1  19
BRANCH   4  24
ATOM     24  C   UNL     1       3.247   1.490  -0.803  0.00  0.00    -0.022 A 
ATOM     25  C   UNL     1       3.564   2.518   0.113  0.00  0.00    +0.005 A 
ATOM     26  C   UNL     1       4.885   2.747   0.502  0.00  0.00    +0.000 A 
ATOM     27  C   UNL     1       5.914   1.981  -0.050  0.00  0.00    +0.000 A 
ATOM     28  C   UNL     1       5.630   0.991  -0.993  0.00  0.00    +0.000 A 
ATOM     29  C   UNL     1       4.308   0.749  -1.374  0.00  0.00    +0.005 A 
ENDBRANCH   4  24
TORSDOF 4
