REMARK  Name = 
REMARK  14 active torsions:
REMARK  status: ('A' for Active; 'I' for Inactive)
REMARK    1  A    between atoms: C_1  and  C_2
REMARK    2  A    between atoms: C_3  and  N_4
REMARK    3  A    between atoms: N_4  and  C_5
REMARK    4  A    between atoms: N_4  and  C_6
REMARK    5  A    between atoms: N_4  and  C_28
REMARK    6  A    between atoms: C_6  and  C_7
REMARK    7  A    between atoms: C_7  and  C_8
REMARK    8  A    between atoms: C_8  and  C_9
REMARK    9  A    between atoms: C_9  and  C_10
REMARK   10  A    between atoms: C_10  and  C_11
REMARK   11  A    between atoms: C_11  and  N_12
REMARK   12  A    between atoms: N_12  and  C_13
REMARK   13  A    between atoms: N_12  and  C_14
REMARK   14  A    between atoms: N_12  and  C_15
REMARK                            x       y       z     vdW  Elec       q    Type
REMARK                         _______ _______ _______ _____ _____    ______ ____
ROOT
ATOM      1  C   UNL     1      -0.759   0.002  -0.011  0.00  0.00    +0.000 C 
ATOM      2  C   UNL     1       0.759  -0.002   0.011  0.00  0.00    +0.000 C 
ENDROOT
TORSDOF 0
REMARK  Name = 
REMARK  14 active torsions:
REMARK  status: ('A' for Active; 'I' for Inactive)
REMARK    1  A    between atoms: C_1  and  C_2
REMARK    2  A    between atoms: C_3  and  N_4
REMARK    3  A    between atoms: N_4  and  C_5
REMARK    4  A    between atoms: N_4  and  C_6
REMARK    5  A    between atoms: N_4  and  C_28
REMARK    6  A    between atoms: C_6  and  C_7
REMARK    7  A    between atoms: C_7  and  C_8
REMARK    8  A    between atoms: C_8  and  C_9
REMARK    9  A    between atoms: C_9  and  C_10
REMARK   10  A    between atoms: C_10  and  C_11
REMARK   11  A    between atoms: C_11  and  N_12
REMARK   12  A    between atoms: N_12  and  C_13
REMARK   13  A    between atoms: N_12  and  C_14
REMARK   14  A    between atoms: N_12  and  C_15
REMARK                            x       y       z     vdW  Elec       q    Type
REMARK                         _______ _______ _______ _____ _____    ______ ____
ROOT
ATOM      1  C   UNL     1      -1.129   1.138  -0.808  0.00  0.00    -0.002 C 
ENDROOT
BRANCH   1   2
ATOM      2  C   UNL     1      -1.799  -0.142  -0.278  0.00  0.00    -0.018 C 
BRANCH   2   3
ATOM      3  C   UNL     1      -2.455   0.062   1.114  0.00  0.00    -0.075 C 
BRANCH   3   5
ATOM      4  C   UNL     1      -2.917  -2.356   1.282  0.00  0.00    -0.091 C 
ATOM      5  N   UNL     1      -3.440  -0.990   1.556  0.00  0.00    +0.384 N 
ATOM      6  C   UNL     1      -3.542  -0.890   3.040  0.00  0.00    -0.091 C 
BRANCH   5   7
ATOM      7  C   UNL     1      -4.834  -0.829   0.978  0.00  0.00    -0.003 C 
ATOM      8  C   UNL     1      -5.397   0.581   1.113  0.00  0.00    -0.049 A 
ATOM      9  C   UNL     1      -5.542   1.186  -0.124  0.00  0.00    -0.016 A 
ATOM     10  C   UNL     1      -6.078   2.468  -0.260  0.00  0.00    +0.009 A 
ATOM     11  C   UNL     1      -6.481   3.148   0.897  0.00  0.00    +0.001 A 
ATOM     12  C   UNL     1      -6.390   2.523   2.154  0.00  0.00    +0.000 A 
ATOM     13  C   UNL     1      -5.869   1.223   2.265  0.00  0.00    +0.003 A 
ATOM     14  C   UNL     1      -5.250   0.209  -1.147  0.00  0.00    -0.016 A 
ATOM     15  C   UNL     1      -4.920  -0.987  -0.530  0.00  0.00    -0.049 A 
ATOM     16  C   UNL     1      -4.866  -2.168  -1.282  0.00  0.00    +0.003 A 
ATOM     17  C   UNL     1      -5.032  -2.097  -2.674  0.00  0.00    +0.000 A 
ATOM     18  C   UNL     1      -5.306  -0.866  -3.296  0.00  0.00    +0.001 A 
ATOM     19  C   UNL     1      -5.443   0.298  -2.527  0.00  0.00    +0.009 A 
ENDBRANCH   5   7
ENDBRANCH   3   5
ENDBRANCH   2   3
ENDBRANCH   1   2
BRANCH   1  20
ATOM     20  C   UNL     1       0.000   1.701   0.080  0.00  0.00    -0.002 C 
BRANCH  20  21
ATOM     21  C   UNL     1       1.130   0.711   0.418  0.00  0.00    -0.018 C 
BRANCH  21  22
ATOM     22  C   UNL     1       1.858   0.179  -0.843  0.00  0.00    -0.075 C 
BRANCH  22  23
ATOM     23  N   UNL     1       3.031  -0.717  -0.575  0.00  0.00    +0.384 N 
ATOM     24  C   UNL     1       2.545  -1.931   0.138  0.00  0.00    -0.091 C 
ATOM     25  C   UNL     1       3.554  -1.155  -1.900  0.00  0.00    -0.091 C 
BRANCH  23  26
ATOM     26  C   UNL     1       4.113  -0.032   0.237  0.00  0.00    -0.003 C 
ATOM     27  C   UNL     1       4.732   1.177  -0.458  0.00  0.00    -0.049 A 
ATOM     28  C   UNL     1       6.056   0.942  -0.794  0.00  0.00    -0.016 A 
ATOM     29  C   UNL     1       6.851   1.920  -1.395  0.00  0.00    +0.009 A 
ATOM     30  C   UNL     1       6.282   3.175  -1.654  0.00  0.00    +0.001 A 
ATOM     31  C   UNL     1       4.957   3.445  -1.267  0.00  0.00    +0.000 A 
ATOM     32  C   UNL     1       4.183   2.453  -0.643  0.00  0.00    +0.003 A 
ATOM     33  C   UNL     1       6.449  -0.337  -0.248  0.00  0.00    -0.016 A 
ATOM     34  C   UNL     1       5.365  -0.882   0.418  0.00  0.00    -0.049 A 
ATOM     35  C   UNL     1       5.541  -2.001   1.243  0.00  0.00    +0.003 A 
ATOM     36  C   UNL     1       6.805  -2.609   1.304  0.00  0.00    +0.000 A 
ATOM     37  C   UNL     1       7.888  -2.073   0.584  0.00  0.00    +0.001 A 
ATOM     38  C   UNL     1       7.720  -0.912  -0.183  0.00  0.00    +0.009 A 
ENDBRANCH  23  26
ENDBRANCH  22  23
ENDBRANCH  21  22
ENDBRANCH  20  21
ENDBRANCH   1  20
TORSDOF 9
