REMARK  Name = 
REMARK  4 active torsions:
REMARK  status: ('A' for Active; 'I' for Inactive)
REMARK    1  A    between atoms: O_1  and  C_2
REMARK    2  A    between atoms: C_3  and  C_4
REMARK    3  A    between atoms: C_4  and  C_5
REMARK    4  A    between atoms: C_6  and  O_7
REMARK                            x       y       z     vdW  Elec       q    Type
REMARK                         _______ _______ _______ _____ _____    ______ ____
ROOT
ATOM      1  C   UNL     1      -0.011  -0.361  -1.454  0.00  0.00    +0.080 C 
ENDROOT
BRANCH   1   3
ATOM      2  C   UNL     1       1.899   1.163  -0.745  0.00  0.00    +0.140 A 
ATOM      3  C   UNL     1       1.233  -0.081  -0.625  0.00  0.00    +0.020 A 
ATOM      4  C   UNL     1       1.749  -1.059   0.260  0.00  0.00    +0.066 A 
ATOM      5 CL   UNL     1       0.992  -2.648   0.404  0.00  0.00    -0.082 Cl
ATOM      6  C   UNL     1       2.892  -0.779   1.028  0.00  0.00    +0.061 A 
ATOM      7 CL   UNL     1       3.559  -1.963   2.146  0.00  0.00    -0.082 Cl
ATOM      8  C   UNL     1       3.526   0.457   0.914  0.00  0.00    +0.045 A 
ATOM      9  C   UNL     1       3.043   1.425   0.034  0.00  0.00    +0.084 A 
ATOM     10 CL   UNL     1       3.899   2.959  -0.067  0.00  0.00    -0.080 Cl
BRANCH   2  11
ATOM     11  O   UNL     1       1.412   2.124  -1.635  0.00  0.00    -0.505 OA
ATOM     12  H   UNL     1       1.843   3.030  -1.762  0.00  0.00    +0.292 HD
ENDBRANCH   2  11
ENDBRANCH   1   3
BRANCH   1  13
ATOM     13  C   UNL     1      -1.268  -0.480  -0.602  0.00  0.00    +0.020 A 
ATOM     14  C   UNL     1      -1.650   0.597   0.233  0.00  0.00    +0.140 A 
ATOM     15  C   UNL     1      -2.800   0.492   1.038  0.00  0.00    +0.084 A 
ATOM     16 CL   UNL     1      -3.297   1.792   2.115  0.00  0.00    -0.080 Cl
ATOM     17  C   UNL     1      -3.581  -0.661   0.993  0.00  0.00    +0.045 A 
ATOM     18  C   UNL     1      -3.246  -1.712   0.141  0.00  0.00    +0.061 A 
ATOM     19 CL   UNL     1      -4.294  -3.126   0.109  0.00  0.00    -0.082 Cl
ATOM     20  C   UNL     1      -2.101  -1.628  -0.670  0.00  0.00    +0.066 A 
ATOM     21 CL   UNL     1      -1.754  -2.963  -1.777  0.00  0.00    -0.082 Cl
BRANCH  14  22
ATOM     22  O   UNL     1      -0.883   1.764   0.243  0.00  0.00    -0.505 OA
ATOM     23  H   UNL     1      -1.104   2.569   0.815  0.00  0.00    +0.292 HD
ENDBRANCH  14  22
ENDBRANCH   1  13
TORSDOF 4
