REMARK  Name = 
REMARK  3 active torsions:
REMARK  status: ('A' for Active; 'I' for Inactive)
REMARK    1  A    between atoms: C_1  and  N_2
REMARK    2  A    between atoms: C_8  and  C_9
REMARK    3  A    between atoms: C_8  and  C_12
REMARK                            x       y       z     vdW  Elec       q    Type
REMARK                         _______ _______ _______ _____ _____    ______ ____
ROOT
ATOM      1  C   UNL     1       3.562   1.054   1.491  0.00  0.00    +0.143 C 
ATOM      2  N   UNL     1       2.668   0.096   0.832  0.00  0.00    -0.228 N 
ATOM      3  C   UNL     1       2.996  -1.302   0.826  0.00  0.00    +0.315 C 
ATOM      4  O   UNL     1       4.070  -1.710   1.346  0.00  0.00    -0.252 OA
ATOM      5  N   UNL     1       2.102  -2.245   0.245  0.00  0.00    -0.239 N 
ATOM      6  C   UNL     1       0.906  -1.829  -0.415  0.00  0.00    +0.239 C 
ATOM      7  O   UNL     1       0.098  -2.709  -0.821  0.00  0.00    -0.274 OA
ATOM      8  C   UNL     1       0.623  -0.366  -0.702  0.00  0.00    +0.142 C 
ATOM      9  C   UNL     1       0.917  -0.135  -2.200  0.00  0.00    +0.035 C 
ATOM     10  C   UNL     1       1.532   0.572   0.083  0.00  0.00    +0.242 C 
ATOM     11  O   UNL     1       1.294   1.812   0.038  0.00  0.00    -0.274 OA
ATOM     12  H   UNL     1       2.316  -3.265   0.320  0.00  0.00    +0.159 HD
ENDROOT
BRANCH   8  13
ATOM     13  C   UNL     1      -0.839  -0.061  -0.316  0.00  0.00    -0.050 C 
ATOM     14  C   UNL     1      -1.215  -0.232   0.979  0.00  0.00    -0.026 C 
ATOM     15  C   UNL     1      -2.611   0.027   1.484  0.00  0.00    +0.027 C 
ATOM     16  C   UNL     1      -3.373   1.010   0.596  0.00  0.00    +0.004 C 
ATOM     17  C   UNL     1      -3.261   0.577  -0.861  0.00  0.00    +0.005 C 
ATOM     18  C   UNL     1      -1.796   0.587  -1.314  0.00  0.00    +0.032 C 
ENDBRANCH   8  13
TORSDOF 1
