REMARK  Name = 
REMARK  7 active torsions:
REMARK  status: ('A' for Active; 'I' for Inactive)
REMARK    1  A    between atoms: C_1  and  C_2
REMARK    2  A    between atoms: C_2  and  C_3
REMARK    3  A    between atoms: C_2  and  O_11
REMARK    4  A    between atoms: C_3  and  N_4
REMARK    5  A    between atoms: N_4  and  C_5
REMARK    6  A    between atoms: O_11  and  C_12
REMARK    7  A    between atoms: C_12  and  C_14
REMARK                            x       y       z     vdW  Elec       q    Type
REMARK                         _______ _______ _______ _____ _____    ______ ____
ROOT
ATOM      1  C   UNL     1       0.610  -1.978   2.298  0.00  0.00    +0.053 C 
ATOM      2  C   UNL     1       0.759  -0.460   2.131  0.00  0.00    +0.187 C 
ENDROOT
BRANCH   2   3
ATOM      3  C   UNL     1      -0.589   0.220   1.851  0.00  0.00    +0.125 C 
BRANCH   3   4
ATOM      4  N   UNL     1      -1.101  -0.160   0.523  0.00  0.00    -0.310 NA
ATOM      5  H   UNL     1      -1.459  -1.143   0.560  0.00  0.00    +0.122 HD
BRANCH   4   6
ATOM      6  C   UNL     1      -2.182   0.730   0.056  0.00  0.00    +0.054 C 
ATOM      7  C   UNL     1      -2.228   0.679  -1.489  0.00  0.00    +0.019 C 
ATOM      8  C   UNL     1      -3.598   1.109  -2.024  0.00  0.00    +0.002 C 
ATOM      9  C   UNL     1      -4.718   0.164  -1.545  0.00  0.00    +0.000 C 
ATOM     10  C   UNL     1      -4.409  -0.519  -0.197  0.00  0.00    +0.002 C 
ATOM     11  C   UNL     1      -3.553   0.375   0.707  0.00  0.00    +0.019 C 
ENDBRANCH   4   6
ENDBRANCH   3   4
ENDBRANCH   2   3
BRANCH   2  12
ATOM     12  O   UNL     1       1.663  -0.164   1.066  0.00  0.00    -0.457 OA
BRANCH  12  13
ATOM     13  C   UNL     1       3.052  -0.319   1.155  0.00  0.00    +0.339 C 
ATOM     14  O   UNL     1       3.581  -0.685   2.241  0.00  0.00    -0.245 OA
BRANCH  13  15
ATOM     15  C   UNL     1       3.897  -0.044  -0.027  0.00  0.00    +0.059 A 
ATOM     16  C   UNL     1       3.309   0.364  -1.239  0.00  0.00    +0.015 A 
ATOM     17  C   UNL     1       4.106   0.624  -2.359  0.00  0.00    +0.001 A 
ATOM     18  C   UNL     1       5.493   0.480  -2.282  0.00  0.00    +0.000 A 
ATOM     19  C   UNL     1       6.087   0.076  -1.084  0.00  0.00    +0.001 A 
ATOM     20  C   UNL     1       5.296  -0.185   0.039  0.00  0.00    +0.015 A 
ENDBRANCH  13  15
ENDBRANCH  12  13
ENDBRANCH   2  12
TORSDOF 6
