REMARK  Name = 
REMARK  9 active torsions:
REMARK  status: ('A' for Active; 'I' for Inactive)
REMARK    1  A    between atoms: O_1  and  P_2
REMARK    2  A    between atoms: P_2  and  O_3
REMARK    3  A    between atoms: P_2  and  O_4
REMARK    4  A    between atoms: O_6  and  P_7
REMARK    5  A    between atoms: P_7  and  O_8
REMARK    6  A    between atoms: P_7  and  O_9
REMARK    7  A    between atoms: N_11  and  C_12
REMARK    8  A    between atoms: C_12  and  C_13
REMARK    9  A    between atoms: C_13  and  C_14
REMARK                            x       y       z     vdW  Elec       q    Type
REMARK                         _______ _______ _______ _____ _____    ______ ____
ROOT
ATOM      1  P   UNL     1      -0.048  -0.126   0.440  0.00  0.00    +0.470 P 
ATOM      2  O   UNL     1      -0.148  -0.926   1.718  0.00  0.00    -0.228 OA
ENDROOT
BRANCH   1   3
ATOM      3  O   UNL     1       1.491  -0.332  -0.232  0.00  0.00    -0.303 OA
ATOM      4  H   UNL     1       1.463   0.170  -1.085  0.00  0.00    +0.222 HD
ENDBRANCH   1   3
BRANCH   1   5
ATOM      5  O   UNL     1      -0.303   1.511   0.782  0.00  0.00    -0.303 OA
ATOM      6  H   UNL     1      -0.271   1.961  -0.099  0.00  0.00    +0.222 HD
ENDBRANCH   1   5
BRANCH   1   7
ATOM      7  O   UNL     1      -1.223  -0.663  -0.654  0.00  0.00    -0.303 OA
ATOM      8  H   UNL     1      -0.961  -1.594  -0.869  0.00  0.00    +0.222 HD
ENDBRANCH   1   7
TORSDOF 3
REMARK  Name = 
REMARK  9 active torsions:
REMARK  status: ('A' for Active; 'I' for Inactive)
REMARK    1  A    between atoms: O_1  and  P_2
REMARK    2  A    between atoms: P_2  and  O_3
REMARK    3  A    between atoms: P_2  and  O_4
REMARK    4  A    between atoms: O_6  and  P_7
REMARK    5  A    between atoms: P_7  and  O_8
REMARK    6  A    between atoms: P_7  and  O_9
REMARK    7  A    between atoms: N_11  and  C_12
REMARK    8  A    between atoms: C_12  and  C_13
REMARK    9  A    between atoms: C_13  and  C_14
REMARK                            x       y       z     vdW  Elec       q    Type
REMARK                         _______ _______ _______ _____ _____    ______ ____
ROOT
ATOM      1  P   UNL     1      -0.032  -0.145   0.435  0.00  0.00    +0.470 P 
ATOM      2  O   UNL     1      -0.066  -0.997   1.683  0.00  0.00    -0.228 OA
ENDROOT
BRANCH   1   3
ATOM      3  O   UNL     1       1.497  -0.260  -0.280  0.00  0.00    -0.303 OA
ATOM      4  H   UNL     1       1.427   0.273  -1.112  0.00  0.00    +0.222 HD
ENDBRANCH   1   3
BRANCH   1   5
ATOM      5  O   UNL     1      -0.345   1.465   0.849  0.00  0.00    -0.303 OA
ATOM      6  H   UNL     1      -0.353   1.950  -0.015  0.00  0.00    +0.222 HD
ENDBRANCH   1   5
BRANCH   1   7
ATOM      7  O   UNL     1      -1.211  -0.688  -0.651  0.00  0.00    -0.303 OA
ATOM      8  H   UNL     1      -0.917  -1.598  -0.909  0.00  0.00    +0.222 HD
ENDBRANCH   1   7
TORSDOF 3
REMARK  Name = 
REMARK  9 active torsions:
REMARK  status: ('A' for Active; 'I' for Inactive)
REMARK    1  A    between atoms: O_1  and  P_2
REMARK    2  A    between atoms: P_2  and  O_3
REMARK    3  A    between atoms: P_2  and  O_4
REMARK    4  A    between atoms: O_6  and  P_7
REMARK    5  A    between atoms: P_7  and  O_8
REMARK    6  A    between atoms: P_7  and  O_9
REMARK    7  A    between atoms: N_11  and  C_12
REMARK    8  A    between atoms: C_12  and  C_13
REMARK    9  A    between atoms: C_13  and  C_14
REMARK                            x       y       z     vdW  Elec       q    Type
REMARK                         _______ _______ _______ _____ _____    ______ ____
ROOT
ATOM      1  C   UNL     1      -0.788  -0.343   0.589  0.00  0.00    +0.037 A 
ATOM      2  C   UNL     1      -1.817  -0.831  -0.184  0.00  0.00    +0.133 A 
ATOM      3  N   UNL     1      -2.968  -0.236   0.188  0.00  0.00    -0.244 NA
ATOM      4  C   UNL     1      -2.604   0.608   1.178  0.00  0.00    +0.196 A 
ATOM      5  N   UNL     1      -1.284   0.570   1.438  0.00  0.00    -0.348 N 
ATOM      6  H   UNL     1      -0.761   1.138   2.141  0.00  0.00    +0.166 HD
ENDROOT
BRANCH   1   7
ATOM      7  C   UNL     1       0.664  -0.684   0.458  0.00  0.00    +0.069 C 
BRANCH   7   8
ATOM      8  C   UNL     1       1.356   0.277  -0.510  0.00  0.00    +0.084 C 
BRANCH   8   9
ATOM      9  N   UNL     1       2.766  -0.075  -0.645  0.00  0.00    -0.330 NA
ATOM     10  H   UNL     1       3.248   0.153   0.255  0.00  0.00    +0.118 HD
ATOM     11  H   UNL     1       3.182   0.552  -1.371  0.00  0.00    +0.118 HD
ENDBRANCH   8   9
ENDBRANCH   7   8
ENDBRANCH   1   7
TORSDOF 3
