REMARK  Name = 
REMARK  7 active torsions:
REMARK  status: ('A' for Active; 'I' for Inactive)
REMARK    1  A    between atoms: C_2  and  N_3
REMARK    2  A    between atoms: N_3  and  C_4
REMARK    3  A    between atoms: C_10  and  O_12
REMARK    4  A    between atoms: O_12  and  C_13
REMARK    5  A    between atoms: C_13  and  C_15
REMARK    6  A    between atoms: C_15  and  O_16
REMARK    7  A    between atoms: C_15  and  C_17
REMARK                            x       y       z     vdW  Elec       q    Type
REMARK                         _______ _______ _______ _____ _____    ______ ____
ROOT
ATOM      1 BR   UNL     1      -1.294   0.130  -2.050  0.00  0.00    +0.000 Br
ENDROOT
TORSDOF 0
REMARK  Name = 
REMARK  7 active torsions:
REMARK  status: ('A' for Active; 'I' for Inactive)
REMARK    1  A    between atoms: C_2  and  N_3
REMARK    2  A    between atoms: N_3  and  C_4
REMARK    3  A    between atoms: C_10  and  O_12
REMARK    4  A    between atoms: O_12  and  C_13
REMARK    5  A    between atoms: C_13  and  C_15
REMARK    6  A    between atoms: C_15  and  O_16
REMARK    7  A    between atoms: C_15  and  C_17
REMARK                            x       y       z     vdW  Elec       q    Type
REMARK                         _______ _______ _______ _____ _____    ______ ____
ROOT
ATOM      1  O   UNL     1       1.504   2.378   5.323  0.00  0.00    -0.459 OA
ENDROOT
BRANCH   1  10
ATOM      2  C   UNL     1       1.717  -0.054  -0.155  0.00  0.00    -0.092 C 
ATOM      3  N   UNL     1       0.977   0.558   1.544  0.00  0.00    +0.380 N 
ATOM      4  C   UNL     1      -1.057   0.018   1.661  0.00  0.00    -0.092 C 
ATOM      5  C   UNL     1       1.205   2.048   1.634  0.00  0.00    -0.062 C 
ATOM      6  C   UNL     1       0.234   1.276   0.955  0.00  0.00    -0.016 C 
ATOM      7  C   UNL     1       0.772  -0.601   1.793  0.00  0.00    -0.016 C 
ATOM      8  C   UNL     1       1.812  -0.092   2.590  0.00  0.00    -0.062 C 
ATOM      9  C   UNL     1       1.395   0.389   3.953  0.00  0.00    +0.030 C 
ATOM     10  C   UNL     1       1.669   1.870   4.011  0.00  0.00    +0.174 C 
ATOM     11  C   UNL     1       0.820   2.590   2.987  0.00  0.00    +0.030 C 
ENDBRANCH   1  10
BRANCH   1  12
ATOM     12  C   UNL     1       0.258   2.313   5.868  0.00  0.00    +0.341 C 
ATOM     13  O   UNL     1      -0.738   1.831   5.342  0.00  0.00    -0.248 OA
BRANCH  12  14
ATOM     14  C   UNL     1       0.267   2.882   7.265  0.00  0.00    +0.253 C 
BRANCH  14  15
ATOM     15  C   UNL     1       0.658   4.338   7.245  0.00  0.00    -0.008 A 
ATOM     16  C   UNL     1       1.956   4.737   7.586  0.00  0.00    +0.007 A 
ATOM     17  C   UNL     1       2.257   6.086   7.726  0.00  0.00    +0.000 A 
ATOM     18  C   UNL     1       1.313   7.048   7.378  0.00  0.00    +0.000 A 
ATOM     19  C   UNL     1       0.042   6.662   6.956  0.00  0.00    +0.000 A 
ATOM     20  C   UNL     1      -0.288   5.311   6.889  0.00  0.00    +0.007 A 
ENDBRANCH  14  15
BRANCH  14  21
ATOM     21  O   UNL     1       1.130   2.135   8.122  0.00  0.00    -0.376 OA
ATOM     22  H   UNL     1       0.806   1.219   8.126  0.00  0.00    +0.211 HD
ENDBRANCH  14  21
ENDBRANCH  12  14
ENDBRANCH   1  12
TORSDOF 5
