REMARK  Name = 
REMARK  17 active torsions:
REMARK  status: ('A' for Active; 'I' for Inactive)
REMARK    1  A    between atoms: C_2  and  O_3
REMARK    2  A    between atoms: O_3  and  C_4
REMARK    3  A    between atoms: C_4  and  C_6
REMARK    4  A    between atoms: C_6  and  O_7
REMARK    5  A    between atoms: C_6  and  C_8
REMARK    6  A    between atoms: C_6  and  C_15
REMARK    7  A    between atoms: C_8  and  C_9
REMARK    8  A    between atoms: C_9  and  C_10
REMARK    9  A    between atoms: C_10  and  C_11
REMARK   10  A    between atoms: C_11  and  C_12
REMARK   11  A    between atoms: C_11  and  C_13
REMARK   12  A    between atoms: C_11  and  O_14
REMARK   13  A    between atoms: C_15  and  C_16
REMARK   14  A    between atoms: C_16  and  O_18
REMARK   15  A    between atoms: O_18  and  C_19
REMARK   16  A    between atoms: C_20  and  O_21
REMARK   17  A    between atoms: O_21  and  C_22
REMARK                            x       y       z     vdW  Elec       q    Type
REMARK                         _______ _______ _______ _____ _____    ______ ____
ROOT
ATOM      1  C   UNL     1      -2.776  -0.126  -0.612  0.00  0.00    +0.092 C 
ATOM      2  C   UNL     1      -1.585  -0.299  -1.589  0.00  0.00    +0.250 C 
ATOM      3  C   UNL     1      -2.181   0.129  -2.892  0.00  0.00    +0.136 C 
ATOM      4  C   UNL     1      -3.494   0.214  -2.837  0.00  0.00    +0.041 C 
ATOM      5  C   UNL     1      -4.031  -0.257  -1.521  0.00  0.00    +0.054 C 
ATOM      6  C   UNL     1      -4.568  -1.686  -1.716  0.00  0.00    +0.028 C 
ATOM      7  C   UNL     1      -6.035  -1.495  -2.054  0.00  0.00    +0.017 C 
ATOM      8  C   UNL     1      -6.371  -0.047  -1.699  0.00  0.00    +0.085 C 
ATOM      9  N   UNL     1      -5.169   0.595  -1.129  0.00  0.00    -0.292 NA
ATOM     10  C   UNL     1      -5.307   0.855   0.327  0.00  0.00    +0.090 C 
ATOM     11  C   UNL     1      -5.299  -0.411   1.198  0.00  0.00    +0.051 C 
ATOM     12  C   UNL     1      -3.935  -0.989   1.542  0.00  0.00    -0.039 A 
ATOM     13  C   UNL     1      -3.860  -1.700   2.765  0.00  0.00    +0.053 A 
ATOM     14  C   UNL     1      -2.677  -2.337   3.099  0.00  0.00    +0.167 A 
ATOM     15  C   UNL     1      -1.602  -2.313   2.289  0.00  0.00    +0.167 A 
ATOM     16  O   UNL     1      -0.569  -3.025   2.869  0.00  0.00    -0.453 OA
ATOM     17  C   UNL     1      -1.030  -3.524   4.131  0.00  0.00    +0.466 C 
ATOM     18  O   UNL     1      -2.382  -3.062   4.238  0.00  0.00    -0.453 OA
ATOM     19  C   UNL     1      -1.606  -1.643   1.076  0.00  0.00    +0.054 A 
ATOM     20  C   UNL     1      -2.790  -0.973   0.661  0.00  0.00    -0.031 A 
ENDROOT
BRANCH   3  21
ATOM     21  O   UNL     1      -1.484   0.360  -4.083  0.00  0.00    -0.496 OA
ATOM     22  C   UNL     1      -0.089   0.138  -4.234  0.00  0.00    +0.276 C 
ENDBRANCH   3  21
BRANCH   2  23
ATOM     23  O   UNL     1      -0.514   0.575  -1.216  0.00  0.00    -0.451 OA
BRANCH  23  24
ATOM     24  C   UNL     1       0.791   0.150  -0.930  0.00  0.00    +0.340 C 
ATOM     25  O   UNL     1       1.148  -1.035  -1.188  0.00  0.00    -0.248 OA
BRANCH  24  26
ATOM     26  C   UNL     1       1.783   1.146  -0.355  0.00  0.00    +0.172 C 
BRANCH  26  27
ATOM     27  O   UNL     1       1.067   2.150   0.330  0.00  0.00    -0.377 OA
ATOM     28  H   UNL     1       0.541   1.721   1.056  0.00  0.00    +0.211 HD
ENDBRANCH  26  27
BRANCH  26  29
ATOM     29  C   UNL     1       2.738   0.438   0.659  0.00  0.00    +0.047 C 
BRANCH  29  30
ATOM     30  C   UNL     1       3.816   1.372   1.242  0.00  0.00    +0.006 C 
BRANCH  30  31
ATOM     31  C   UNL     1       4.514   0.736   2.457  0.00  0.00    +0.034 C 
BRANCH  31  32
ATOM     32  C   UNL     1       5.667   1.595   3.052  0.00  0.00    +0.061 C 
ATOM     33  C   UNL     1       6.080   0.989   4.402  0.00  0.00    +0.041 C 
ATOM     34  C   UNL     1       6.908   1.602   2.124  0.00  0.00    +0.041 C 
BRANCH  32  35
ATOM     35  O   UNL     1       5.221   2.907   3.300  0.00  0.00    -0.389 OA
ATOM     36  H   UNL     1       5.232   3.414   2.448  0.00  0.00    +0.210 HD
ENDBRANCH  32  35
ENDBRANCH  31  32
ENDBRANCH  30  31
ENDBRANCH  29  30
ENDBRANCH  26  29
BRANCH  26  37
ATOM     37  C   UNL     1       2.533   1.849  -1.522  0.00  0.00    +0.166 C 
BRANCH  37  38
ATOM     38  C   UNL     1       3.263   0.945  -2.479  0.00  0.00    +0.310 C 
ATOM     39  O   UNL     1       4.021   0.031  -2.051  0.00  0.00    -0.251 OA
BRANCH  38  40
ATOM     40  O   UNL     1       3.161   1.194  -3.853  0.00  0.00    -0.468 OA
ATOM     41  C   UNL     1       3.779   0.366  -4.831  0.00  0.00    +0.280 C 
ENDBRANCH  38  40
ENDBRANCH  37  38
ENDBRANCH  26  37
ENDBRANCH  24  26
ENDBRANCH  23  24
ENDBRANCH   2  23
TORSDOF 13
