REMARK  Name = 
REMARK  12 active torsions:
REMARK  status: ('A' for Active; 'I' for Inactive)
REMARK    1  A    between atoms: C_1  and  C_2
REMARK    2  A    between atoms: C_2  and  N_3
REMARK    3  A    between atoms: N_3  and  C_4
REMARK    4  A    between atoms: N_3  and  C_7
REMARK    5  A    between atoms: C_4  and  C_5
REMARK    6  A    between atoms: C_5  and  O_6
REMARK    7  A    between atoms: C_7  and  C_8
REMARK    8  A    between atoms: C_8  and  C_9
REMARK    9  A    between atoms: C_9  and  C_10
REMARK   10  A    between atoms: C_10  and  C_11
REMARK   11  A    between atoms: C_10  and  N_12
REMARK   12  A    between atoms: N_12  and  C_13
REMARK                            x       y       z     vdW  Elec       q    Type
REMARK                         _______ _______ _______ _____ _____    ______ ____
ROOT
ATOM      1  N   UNL     1      -2.186   0.471  -1.587  0.00  0.00    -0.341 N 
ATOM      2  H   UNL     1      -2.450   1.419  -1.939  0.00  0.00    +0.146 HD
ENDROOT
BRANCH   1   3
ATOM      3  C   UNL     1      -3.214  -0.320  -0.969  0.00  0.00    +0.038 A 
ATOM      4  C   UNL     1      -3.937   0.169   0.142  0.00  0.00    +0.021 A 
ATOM      5  C   UNL     1      -3.672   1.428   0.714  0.00  0.00    +0.013 A 
ATOM      6  C   UNL     1      -4.402   1.866   1.822  0.00  0.00    +0.021 A 
ATOM      7  C   UNL     1      -5.402   1.058   2.373  0.00  0.00    +0.043 A 
ATOM      8 CL   UNL     1      -6.312   1.617   3.765  0.00  0.00    -0.083 Cl
ATOM      9  C   UNL     1      -5.675  -0.195   1.816  0.00  0.00    +0.048 A 
ATOM     10  C   UNL     1      -4.950  -0.644   0.707  0.00  0.00    +0.074 A 
ATOM     11  N   UNL     1      -5.221  -1.865   0.174  0.00  0.00    -0.255 NA
ATOM     12  C   UNL     1      -4.546  -2.341  -0.903  0.00  0.00    +0.113 A 
ATOM     13  C   UNL     1      -3.538  -1.578  -1.495  0.00  0.00    +0.043 A 
ENDBRANCH   1   3
BRANCH   1  14
ATOM     14  C   UNL     1      -0.754   0.153  -1.496  0.00  0.00    +0.067 C 
ATOM     15  C   UNL     1      -0.404  -1.023  -2.417  0.00  0.00    +0.028 C 
BRANCH  14  16
ATOM     16  C   UNL     1      -0.351  -0.106  -0.023  0.00  0.00    +0.023 C 
BRANCH  16  17
ATOM     17  C   UNL     1       1.165  -0.243   0.214  0.00  0.00    +0.017 C 
BRANCH  17  18
ATOM     18  C   UNL     1       1.896   1.113   0.175  0.00  0.00    +0.084 C 
BRANCH  18  19
ATOM     19  N   UNL     1       3.370   0.987   0.208  0.00  0.00    -0.300 NA
BRANCH  19  21
ATOM     20  C   UNL     1       5.389   0.952  -1.224  0.00  0.00    +0.020 C 
ATOM     21  C   UNL     1       3.960   0.449  -1.037  0.00  0.00    +0.081 C 
ENDBRANCH  19  21
BRANCH  19  22
ATOM     22  C   UNL     1       3.929   0.491   1.493  0.00  0.00    +0.112 C 
BRANCH  22  23
ATOM     23  C   UNL     1       4.240  -1.018   1.530  0.00  0.00    +0.171 C 
BRANCH  23  24
ATOM     24  O   UNL     1       4.509  -1.421   2.846  0.00  0.00    -0.394 OA
ATOM     25  H   UNL     1       5.415  -1.079   3.068  0.00  0.00    +0.209 HD
ENDBRANCH  23  24
ENDBRANCH  22  23
ENDBRANCH  19  22
ENDBRANCH  18  19
ENDBRANCH  17  18
ENDBRANCH  16  17
ENDBRANCH  14  16
ENDBRANCH   1  14
TORSDOF 10
