REMARK  Name = 
REMARK  1 active torsions:
REMARK  status: ('A' for Active; 'I' for Inactive)
REMARK    1  A    between atoms: N_1  and  N_2
REMARK                            x       y       z     vdW  Elec       q    Type
REMARK                         _______ _______ _______ _____ _____    ______ ____
ROOT
ATOM      1  N   UNL     1       2.370  -0.734   0.154  0.00  0.00    -0.266 N 
ATOM      2  C   UNL     1       1.296   0.226   0.194  0.00  0.00    +0.162 A 
ATOM      3  N   UNL     1       1.597   1.527   0.463  0.00  0.00    -0.133 NA
ATOM      4  N   UNL     1       0.669   2.482   0.505  0.00  0.00    -0.155 NA
ATOM      5  C   UNL     1      -0.638   2.212   0.280  0.00  0.00    +0.143 A 
ATOM      6  C   UNL     1      -1.034   0.902   0.002  0.00  0.00    +0.005 A 
ATOM      7  C   UNL     1      -2.386   0.607  -0.228  0.00  0.00    +0.010 A 
ATOM      8  C   UNL     1      -2.782  -0.703  -0.497  0.00  0.00    +0.001 A 
ATOM      9  C   UNL     1      -1.835  -1.725  -0.534  0.00  0.00    +0.001 A 
ATOM     10  C   UNL     1      -0.483  -1.446  -0.308  0.00  0.00    +0.012 A 
ATOM     11  C   UNL     1      -0.059  -0.125  -0.042  0.00  0.00    +0.026 A 
ATOM     12  H   UNL     1       2.218  -1.720  -0.140  0.00  0.00    +0.168 HD
ENDROOT
BRANCH   1  13
ATOM     13  N   UNL     1       3.686  -0.369   0.482  0.00  0.00    -0.255 NA
ATOM     14  H   UNL     1       3.976   0.401  -0.164  0.00  0.00    +0.140 HD
ATOM     15  H   UNL     1       3.679   0.009   1.457  0.00  0.00    +0.140 HD
ENDBRANCH   1  13
TORSDOF 1
