REMARK  Name = 
REMARK  14 active torsions:
REMARK  status: ('A' for Active; 'I' for Inactive)
REMARK    1  A    between atoms: C_4  and  O_5
REMARK    2  A    between atoms: C_4  and  C_6
REMARK    3  A    between atoms: C_6  and  C_8
REMARK    4  A    between atoms: C_8  and  O_9
REMARK    5  A    between atoms: O_9  and  C_10
REMARK    6  A    between atoms: C_10  and  C_12
REMARK    7  A    between atoms: C_12  and  N_13
REMARK    8  A    between atoms: N_13  and  C_14
REMARK    9  A    between atoms: N_13  and  C_16
REMARK   10  A    between atoms: C_14  and  C_15
REMARK   11  A    between atoms: C_16  and  C_17
REMARK   12  A    between atoms: C_18  and  C_19
REMARK   13  A    between atoms: C_21  and  O_22
REMARK   14  A    between atoms: C_33  and  C_34
REMARK                            x       y       z     vdW  Elec       q    Type
REMARK                         _______ _______ _______ _____ _____    ______ ____
ROOT
ATOM      1  C   UNL     1      -1.891  -1.321  -0.579  0.00  0.00    +0.002 C 
ATOM      2  C   UNL     1      -1.447  -2.760  -0.812  0.00  0.00    +0.008 C 
ATOM      3  C   UNL     1       0.087  -2.676  -0.918  0.00  0.00    +0.043 C 
ATOM      4  C   UNL     1       0.491  -1.212  -0.543  0.00  0.00    +0.133 C 
ATOM      5  C   UNL     1      -0.758  -0.695   0.250  0.00  0.00    +0.009 C 
ATOM      6  C   UNL     1      -0.693  -1.238   1.720  0.00  0.00    +0.015 C 
ATOM      7  C   UNL     1      -0.955   0.850   0.245  0.00  0.00    +0.041 C 
ATOM      8  C   UNL     1      -2.382   1.316   0.662  0.00  0.00    +0.119 C 
ATOM      9  C   UNL     1      -3.550   0.497  -0.004  0.00  0.00    +0.031 C 
ATOM     10  C   UNL     1      -3.305  -1.058  -0.008  0.00  0.00    -0.001 C 
ATOM     11  C   UNL     1      -4.375  -1.789  -0.862  0.00  0.00    +0.008 C 
ATOM     12  C   UNL     1      -5.803  -1.429  -0.438  0.00  0.00    +0.032 C 
ATOM     13  C   UNL     1      -5.952   0.070  -0.474  0.00  0.00    -0.060 C 
ATOM     14  C   UNL     1      -6.627   0.629  -1.498  0.00  0.00    +0.046 C 
ATOM     15  C   UNL     1      -6.502   2.057  -1.818  0.00  0.00    +0.156 C 
ATOM     16  O   UNL     1      -7.219   2.564  -2.722  0.00  0.00    -0.293 OA
ATOM     17  C   UNL     1      -5.468   2.886  -1.130  0.00  0.00    +0.080 C 
ATOM     18  C   UNL     1      -5.315   2.411   0.313  0.00  0.00    +0.019 C 
ATOM     19  C   UNL     1      -5.022   0.879   0.438  0.00  0.00    -0.005 C 
ATOM     20  C   UNL     1      -5.331   0.498   1.914  0.00  0.00    +0.016 C 
ENDROOT
BRANCH   4  21
ATOM     21  O   UNL     1       0.632  -0.475  -1.740  0.00  0.00    -0.380 OA
ATOM     22  H   UNL     1       1.414  -0.839  -2.234  0.00  0.00    +0.211 HD
ENDBRANCH   4  21
BRANCH   4  23
ATOM     23  C   UNL     1       1.797  -1.127   0.258  0.00  0.00    +0.202 C 
ATOM     24  O   UNL     1       2.196  -2.095   0.892  0.00  0.00    -0.291 OA
BRANCH  23  25
ATOM     25  C   UNL     1       2.550   0.176   0.384  0.00  0.00    +0.309 C 
BRANCH  25  26
ATOM     26  O   UNL     1       3.939  -0.063   0.604  0.00  0.00    -0.456 OA
BRANCH  26  27
ATOM     27  C   UNL     1       4.800  -0.573  -0.380  0.00  0.00    +0.322 C 
ATOM     28  O   UNL     1       4.399  -0.743  -1.564  0.00  0.00    -0.249 OA
BRANCH  27  29
ATOM     29  C   UNL     1       6.213  -0.904  -0.013  0.00  0.00    +0.205 C 
BRANCH  29  30
ATOM     30  N   UNL     1       6.915   0.313   0.450  0.00  0.00    -0.293 NA
BRANCH  30  31
ATOM     31  C   UNL     1       8.027  -0.036   1.367  0.00  0.00    +0.081 C 
ATOM     32  C   UNL     1       7.517  -0.124   2.805  0.00  0.00    +0.020 C 
ENDBRANCH  30  31
BRANCH  30  33
ATOM     33  C   UNL     1       7.394   1.114  -0.700  0.00  0.00    +0.081 C 
ATOM     34  C   UNL     1       7.439   2.596  -0.335  0.00  0.00    +0.020 C 
ENDBRANCH  30  33
ENDBRANCH  29  30
ENDBRANCH  27  29
ENDBRANCH  26  27
ENDBRANCH  25  26
ENDBRANCH  23  25
ENDBRANCH   4  23
BRANCH   8  35
ATOM     35  O   UNL     1      -2.486   1.436   2.057  0.00  0.00    -0.391 OA
ATOM     36  H   UNL     1      -2.685   0.549   2.435  0.00  0.00    +0.210 HD
ENDBRANCH   8  35
TORSDOF 10
