REMARK  Name = 
REMARK  2 active torsions:
REMARK  status: ('A' for Active; 'I' for Inactive)
REMARK    1  A    between atoms: C_4  and  O_5
REMARK    2  A    between atoms: N_13  and  C_14
REMARK                            x       y       z     vdW  Elec       q    Type
REMARK                         _______ _______ _______ _____ _____    ______ ____
ROOT
ATOM      1  C   UNL     1       0.964  -1.982  -0.844  0.00  0.00    +0.250 C 
ATOM      2  O   UNL     1       2.278  -1.435  -1.021  0.00  0.00    -0.476 OA
ATOM      3  C   UNL     1       2.300  -0.117  -0.614  0.00  0.00    +0.167 A 
ATOM      4  C   UNL     1       3.419   0.680  -0.378  0.00  0.00    +0.159 A 
ATOM      5  C   UNL     1       3.223   1.927   0.251  0.00  0.00    +0.049 A 
ATOM      6  C   UNL     1       1.935   2.308   0.686  0.00  0.00    +0.008 A 
ATOM      7  C   UNL     1       0.827   1.479   0.422  0.00  0.00    -0.038 A 
ATOM      8  C   UNL     1       1.045   0.321  -0.326  0.00  0.00    +0.012 A 
ATOM      9  C   UNL     1       0.032  -0.727  -0.660  0.00  0.00    +0.049 C 
ATOM     10  C   UNL     1      -0.686  -0.345  -1.995  0.00  0.00    +0.031 C 
ATOM     11  C   UNL     1      -2.083   0.278  -1.787  0.00  0.00    +0.085 C 
ATOM     12  N   UNL     1      -2.108   1.212  -0.642  0.00  0.00    -0.302 NA
ATOM     13  C   UNL     1      -3.455   1.780  -0.474  0.00  0.00    +0.105 C 
ATOM     14  C   UNL     1      -1.578   0.665   0.643  0.00  0.00    +0.065 C 
ATOM     15  C   UNL     1      -0.491   1.660   1.139  0.00  0.00    +0.054 C 
ATOM     16  C   UNL     1      -1.002  -0.785   0.481  0.00  0.00    +0.021 C 
ATOM     17  C   UNL     1      -0.396  -1.367   1.768  0.00  0.00    +0.014 C 
ATOM     18  C   UNL     1       0.061  -2.805   1.526  0.00  0.00    +0.078 C 
ATOM     19  C   UNL     1       0.988  -2.931   0.340  0.00  0.00    +0.174 C 
ATOM     20  O   UNL     1       1.759  -3.877   0.307  0.00  0.00    -0.293 OA
ENDROOT
BRANCH   4  21
ATOM     21  O   UNL     1       4.691   0.232  -0.724  0.00  0.00    -0.503 OA
ATOM     22  H   UNL     1       5.514   0.796  -0.547  0.00  0.00    +0.292 HD
ENDBRANCH   4  21
TORSDOF 1
