REMARK  Name = 
REMARK  3 active torsions:
REMARK  status: ('A' for Active; 'I' for Inactive)
REMARK    1  A    between atoms: OD_1  and  CG_2
REMARK    2  A    between atoms: CA_5  and  C_7
REMARK    3  A    between atoms: C_7  and  O_8
REMARK                            x       y       z     vdW  Elec       q    Type
REMARK                         _______ _______ _______ _____ _____    ______ ____
ROOT
ATOM      1  CG  HYP A   1      -1.398   0.667   0.082  0.00  0.00    +0.130 C 
ATOM      2  CD  HYP A   1      -1.475  -0.747  -0.506  0.00  0.00    +0.113 C 
ATOM      3  N   HYP A   1      -0.112  -1.259  -0.650  0.00  0.00    -0.302 NA
ATOM      4  CA  HYP A   1       0.687  -0.501   0.315  0.00  0.00    +0.166 C 
ATOM      5  CB  HYP A   1       0.074   0.890   0.385  0.00  0.00    +0.062 C 
ATOM      6  H   HYP A   1       0.208  -1.014  -1.619  0.00  0.00    +0.123 HD
ENDROOT
BRANCH   1   7
ATOM      7  OD  HYP A   1      -2.152   0.756   1.263  0.00  0.00    -0.390 OA
ATOM      8  HD  HYP A   1      -3.104   0.794   0.986  0.00  0.00    +0.210 HD
ENDBRANCH   1   7
BRANCH   4   9
ATOM      9  C   HYP A   1       2.150  -0.481  -0.048  0.00  0.00    +0.322 C 
ATOM     10  OXT HYP A   1       2.667  -1.461  -0.649  0.00  0.00    -0.249 OA
BRANCH   9  11
ATOM     11  O   HYP A   1       2.955   0.583   0.351  0.00  0.00    -0.480 OA
ATOM     12  H   HYP A   1       3.945   0.595   0.137  0.00  0.00    +0.295 HD
ENDBRANCH   9  11
ENDBRANCH   4   9
TORSDOF 3
