REMARK  Name = 
REMARK  1 active torsions:
REMARK  status: ('A' for Active; 'I' for Inactive)
REMARK    1  A    between atoms: N_4  and  O_5
REMARK                            x       y       z     vdW  Elec       q    Type
REMARK                         _______ _______ _______ _____ _____    ______ ____
ROOT
ATOM      1  N   UNL     1      -1.564   0.050   0.285  0.00  0.00    -0.312 N 
ATOM      2  C   UNL     1      -0.292  -0.442  -0.136  0.00  0.00    +0.320 C 
ATOM      3  O   UNL     1      -0.162  -1.658  -0.441  0.00  0.00    -0.251 OA
ATOM      4  N   UNL     1       0.830   0.439  -0.211  0.00  0.00    -0.181 N 
ATOM      5  H   UNL     1      -2.386  -0.592   0.341  0.00  0.00    +0.147 HD
ATOM      6  H   UNL     1      -1.686   1.054   0.541  0.00  0.00    +0.147 HD
ATOM      7  H   UNL     1       0.718   1.450   0.030  0.00  0.00    +0.184 HD
ENDROOT
BRANCH   4   8
ATOM      8  O   UNL     1       2.038  -0.015  -0.621  0.00  0.00    -0.294 OA
ATOM      9  H   UNL     1       2.503  -0.286   0.211  0.00  0.00    +0.241 HD
ENDBRANCH   4   8
TORSDOF 1
