REMARK  Name = 
REMARK  2 active torsions:
REMARK  status: ('A' for Active; 'I' for Inactive)
REMARK    1  A    between atoms: N_1  and  S_2
REMARK    2  A    between atoms: S_2  and  C_5
REMARK                            x       y       z     vdW  Elec       q    Type
REMARK                         _______ _______ _______ _____ _____    ______ ____
ROOT
ATOM      1  C   UNL     1       1.678  -0.151   0.221  0.00  0.00    +0.125 A 
ATOM      2  C   UNL     1       1.386  -1.380  -0.409  0.00  0.00    +0.069 A 
ATOM      3 CL   UNL     1       2.646  -2.522  -0.865  0.00  0.00    -0.081 Cl
ATOM      4  C   UNL     1       0.058  -1.720  -0.696  0.00  0.00    +0.047 A 
ATOM      5  C   UNL     1      -0.988  -0.846  -0.375  0.00  0.00    +0.056 A 
ATOM      6  N   UNL     1      -2.346  -1.204  -0.683  0.00  0.00    -0.328 N 
ATOM      7  C   UNL     1      -3.418  -0.210  -0.739  0.00  0.00    +0.209 C 
ATOM      8  N   UNL     1      -3.495   0.536   0.518  0.00  0.00    -0.173 NA
ATOM      9  S   UNL     1      -2.019   1.424   0.723  0.00  0.00    +0.062 S 
ATOM     10  O   UNL     1      -2.030   2.649  -0.149  0.00  0.00    -0.153 OA
ATOM     11  O   UNL     1      -1.878   1.823   2.165  0.00  0.00    -0.153 OA
ATOM     12  C   UNL     1      -0.698   0.370   0.259  0.00  0.00    +0.128 A 
ATOM     13  C   UNL     1       0.625   0.718   0.549  0.00  0.00    +0.060 A 
ATOM     14  H   UNL     1      -2.569  -2.191  -0.947  0.00  0.00    +0.147 HD
ATOM     15  H   UNL     1      -4.268   1.236   0.431  0.00  0.00    +0.150 HD
ENDROOT
BRANCH   1  16
ATOM     16  S   UNL     1       3.340   0.326   0.596  0.00  0.00    +0.057 S 
ATOM     17  O   UNL     1       3.338   1.508   1.524  0.00  0.00    -0.153 OA
ATOM     18  O   UNL     1       4.058  -0.808   1.273  0.00  0.00    -0.153 OA
BRANCH  16  19
ATOM     19  N   UNL     1       4.163   0.760  -0.861  0.00  0.00    -0.203 NA
ATOM     20  H   UNL     1       4.240  -0.103  -1.444  0.00  0.00    +0.144 HD
ATOM     21  H   UNL     1       5.136   1.029  -0.594  0.00  0.00    +0.144 HD
ENDBRANCH  16  19
ENDBRANCH   1  16
TORSDOF 2
