REMARK  Name = 
REMARK  3 active torsions:
REMARK  status: ('A' for Active; 'I' for Inactive)
REMARK    1  A    between atoms: N_1  and  S_2
REMARK    2  A    between atoms: S_2  and  C_5
REMARK    3  A    between atoms: C_16  and  C_17
REMARK                            x       y       z     vdW  Elec       q    Type
REMARK                         _______ _______ _______ _____ _____    ______ ____
ROOT
ATOM      1  C   UNL     1       1.326   0.501   0.239  0.00  0.00    +0.119 A 
ATOM      2  C   UNL     1       0.172   1.242  -0.064  0.00  0.00    +0.059 A 
ATOM      3  C   UNL     1      -1.095   0.662   0.016  0.00  0.00    +0.128 A 
ATOM      4  C   UNL     1      -1.234  -0.678   0.387  0.00  0.00    +0.055 A 
ATOM      5  N   UNL     1      -2.534  -1.288   0.447  0.00  0.00    -0.328 N 
ATOM      6  C   UNL     1      -3.697  -0.717  -0.237  0.00  0.00    +0.209 C 
ATOM      7  N   UNL     1      -3.913   0.676   0.160  0.00  0.00    -0.173 NA
ATOM      8  S   UNL     1      -2.531   1.610  -0.316  0.00  0.00    +0.062 S 
ATOM      9  O   UNL     1      -2.498   2.889   0.473  0.00  0.00    -0.153 OA
ATOM     10  O   UNL     1      -2.612   1.920  -1.785  0.00  0.00    -0.153 OA
ATOM     11  C   UNL     1      -0.097  -1.422   0.718  0.00  0.00    +0.039 A 
ATOM     12  C   UNL     1       1.193  -0.850   0.676  0.00  0.00    +0.083 A 
ATOM     13  H   UNL     1      -2.649  -2.205   0.936  0.00  0.00    +0.147 HD
ATOM     14  H   UNL     1      -3.973   0.712   1.204  0.00  0.00    +0.150 HD
ENDROOT
BRANCH  12  15
ATOM     15  C   UNL     1       2.385  -1.726   1.020  0.00  0.00    +0.419 C 
ATOM     16  F   UNL     1       3.303  -1.039   1.790  0.00  0.00    -0.166 F 
ATOM     17  F   UNL     1       2.990  -2.158  -0.145  0.00  0.00    -0.166 F 
ATOM     18  F   UNL     1       1.998  -2.841   1.744  0.00  0.00    -0.166 F 
ENDBRANCH  12  15
BRANCH   1  19
ATOM     19  S   UNL     1       2.893   1.321   0.076  0.00  0.00    +0.057 S 
ATOM     20  O   UNL     1       2.722   2.607  -0.686  0.00  0.00    -0.153 OA
ATOM     21  O   UNL     1       3.440   1.642   1.438  0.00  0.00    -0.153 OA
BRANCH  19  22
ATOM     22  N   UNL     1       4.017   0.332  -0.788  0.00  0.00    -0.203 NA
ATOM     23  H   UNL     1       4.896   0.886  -0.893  0.00  0.00    +0.144 HD
ATOM     24  H   UNL     1       3.629   0.196  -1.749  0.00  0.00    +0.144 HD
ENDBRANCH  19  22
ENDBRANCH   1  19
TORSDOF 3
