REMARK  Name = 
REMARK  3 active torsions:
REMARK  status: ('A' for Active; 'I' for Inactive)
REMARK    1  A    between atoms: C_4  and  O_5
REMARK    2  A    between atoms: O_5  and  C_6
REMARK    3  A    between atoms: N_14  and  C_15
REMARK                            x       y       z     vdW  Elec       q    Type
REMARK                         _______ _______ _______ _____ _____    ______ ____
ROOT
ATOM      1  C   UNL     1       0.724   2.042   1.049  0.00  0.00    +0.250 C 
ATOM      2  O   UNL     1       1.989   1.365   1.053  0.00  0.00    -0.476 OA
ATOM      3  C   UNL     1       1.843   0.082   0.565  0.00  0.00    +0.167 A 
ATOM      4  C   UNL     1       2.851  -0.807   0.190  0.00  0.00    +0.162 A 
ATOM      5  C   UNL     1       2.459  -1.997  -0.473  0.00  0.00    +0.050 A 
ATOM      6  C   UNL     1       1.101  -2.223  -0.791  0.00  0.00    +0.008 A 
ATOM      7  C   UNL     1       0.119  -1.299  -0.388  0.00  0.00    -0.038 A 
ATOM      8  C   UNL     1       0.530  -0.208   0.369  0.00  0.00    +0.012 A 
ATOM      9  C   UNL     1      -0.336   0.906   0.835  0.00  0.00    +0.049 C 
ATOM     10  C   UNL     1      -1.017   0.507   2.169  0.00  0.00    +0.031 C 
ATOM     11  C   UNL     1      -1.983  -0.683   1.994  0.00  0.00    +0.085 C 
ATOM     12  N   UNL     1      -2.905  -0.467   0.858  0.00  0.00    -0.302 NA
ATOM     13  C   UNL     1      -3.889  -1.556   0.747  0.00  0.00    +0.105 C 
ATOM     14  C   UNL     1      -2.209  -0.161  -0.420  0.00  0.00    +0.065 C 
ATOM     15  C   UNL     1      -1.294  -1.336  -0.928  0.00  0.00    +0.054 C 
ATOM     16  C   UNL     1      -1.427   1.170  -0.219  0.00  0.00    +0.021 C 
ATOM     17  C   UNL     1      -0.829   1.744  -1.511  0.00  0.00    +0.014 C 
ATOM     18  C   UNL     1      -0.180   3.102  -1.234  0.00  0.00    +0.078 C 
ATOM     19  C   UNL     1       0.743   3.103  -0.036  0.00  0.00    +0.174 C 
ATOM     20  O   UNL     1       1.530   4.030   0.081  0.00  0.00    -0.293 OA
ENDROOT
BRANCH   4  21
ATOM     21  O   UNL     1       4.188  -0.480   0.454  0.00  0.00    -0.491 OA
ATOM     22  C   UNL     1       5.294  -1.304   0.105  0.00  0.00    +0.277 C 
ENDBRANCH   4  21
TORSDOF 1
