REMARK  Name = 
REMARK  7 active torsions:
REMARK  status: ('A' for Active; 'I' for Inactive)
REMARK    1  A    between atoms: C_4  and  O_5
REMARK    2  A    between atoms: C_4  and  C_6
REMARK    3  A    between atoms: C_6  and  C_8
REMARK    4  A    between atoms: C_8  and  O_9
REMARK    5  A    between atoms: C_10  and  C_11
REMARK    6  A    between atoms: C_13  and  O_14
REMARK    7  A    between atoms: C_25  and  C_26
REMARK                            x       y       z     vdW  Elec       q    Type
REMARK                         _______ _______ _______ _____ _____    ______ ____
ROOT
ATOM      1  C   UNL     1      -0.972  -1.157   0.434  0.00  0.00    +0.002 C 
ATOM      2  C   UNL     1      -1.776  -2.444   0.343  0.00  0.00    +0.008 C 
ATOM      3  C   UNL     1      -3.201  -2.034   0.751  0.00  0.00    +0.043 C 
ATOM      4  C   UNL     1      -3.215  -0.477   0.901  0.00  0.00    +0.131 C 
ATOM      5  C   UNL     1      -1.966  -0.049   0.044  0.00  0.00    +0.009 C 
ATOM      6  C   UNL     1      -2.359  -0.081  -1.474  0.00  0.00    +0.015 C 
ATOM      7  C   UNL     1      -1.311   1.316   0.410  0.00  0.00    +0.041 C 
ATOM      8  C   UNL     1       0.113   1.513  -0.182  0.00  0.00    +0.119 C 
ATOM      9  C   UNL     1       1.068   0.285   0.058  0.00  0.00    +0.031 C 
ATOM     10  C   UNL     1       0.399  -1.086  -0.288  0.00  0.00    -0.001 C 
ATOM     11  C   UNL     1       1.298  -2.246   0.192  0.00  0.00    +0.008 C 
ATOM     12  C   UNL     1       2.695  -2.171  -0.415  0.00  0.00    +0.032 C 
ATOM     13  C   UNL     1       3.330  -0.831  -0.136  0.00  0.00    -0.060 C 
ATOM     14  C   UNL     1       4.628  -0.791   0.217  0.00  0.00    +0.046 C 
ATOM     15  C   UNL     1       5.362   0.474   0.342  0.00  0.00    +0.156 C 
ATOM     16  O   UNL     1       6.563   0.465   0.721  0.00  0.00    -0.293 OA
ATOM     17  C   UNL     1       4.717   1.764  -0.048  0.00  0.00    +0.080 C 
ATOM     18  C   UNL     1       3.204   1.689   0.172  0.00  0.00    +0.019 C 
ATOM     19  C   UNL     1       2.545   0.437  -0.496  0.00  0.00    -0.005 C 
ATOM     20  C   UNL     1       2.606   0.590  -2.037  0.00  0.00    +0.016 C 
ENDROOT
BRANCH   4  21
ATOM     21  O   UNL     1      -3.011  -0.208   2.274  0.00  0.00    -0.380 OA
ATOM     22  H   UNL     1      -3.163   0.755   2.447  0.00  0.00    +0.211 HD
ENDBRANCH   4  21
BRANCH   4  23
ATOM     23  C   UNL     1      -4.557   0.133   0.448  0.00  0.00    +0.190 C 
ATOM     24  O   UNL     1      -5.471  -0.594   0.084  0.00  0.00    -0.292 OA
BRANCH  23  25
ATOM     25  C   UNL     1      -4.824   1.615   0.475  0.00  0.00    +0.233 C 
BRANCH  25  26
ATOM     26  O   UNL     1      -5.030   2.075  -0.831  0.00  0.00    -0.387 OA
ATOM     27  H   UNL     1      -5.209   3.048  -0.756  0.00  0.00    +0.210 HD
ENDBRANCH  25  26
ENDBRANCH  23  25
ENDBRANCH   4  23
BRANCH   8  28
ATOM     28  O   UNL     1       0.036   1.938  -1.519  0.00  0.00    -0.391 OA
ATOM     29  H   UNL     1      -0.004   1.142  -2.100  0.00  0.00    +0.210 HD
ENDBRANCH   8  28
TORSDOF 5
