REMARK  Name = 
REMARK  12 active torsions:
REMARK  status: ('A' for Active; 'I' for Inactive)
REMARK    1  A    between atoms: O_1  and  C_2
REMARK    2  A    between atoms: C_2  and  C_3
REMARK    3  A    between atoms: C_3  and  S_4
REMARK    4  A    between atoms: S_4  and  O_5
REMARK    5  A    between atoms: O_8  and  C_9
REMARK    6  A    between atoms: C_9  and  C_10
REMARK    7  A    between atoms: C_10  and  S_11
REMARK    8  A    between atoms: S_11  and  O_12
REMARK    9  A    between atoms: N_15  and  C_16
REMARK   10  A    between atoms: C_16  and  N_17
REMARK   11  A    between atoms: C_22  and  C_23
REMARK   12  A    between atoms: C_27  and  C_31
REMARK                            x       y       z     vdW  Elec       q    Type
REMARK                         _______ _______ _______ _____ _____    ______ ____
ROOT
ATOM      1  S   UNL     1       1.331   0.025   0.631  0.00  0.00    +0.082 S 
ATOM      2  O   UNL     1       2.674  -0.615   0.412  0.00  0.00    -0.147 OA
ATOM      3  O   UNL     1       0.986  -0.046   2.091  0.00  0.00    -0.147 OA
ENDROOT
BRANCH   1   4
ATOM      4  O   UNL     1       1.400   1.636   0.155  0.00  0.00    -0.254 OA
ATOM      5  H   UNL     1       1.573   1.607  -0.820  0.00  0.00    +0.244 HD
ENDBRANCH   1   4
BRANCH   1   6
ATOM      6  C   UNL     1       0.096  -0.850  -0.321  0.00  0.00    +0.225 C 
BRANCH   6   7
ATOM      7  C   UNL     1      -1.299  -0.269  -0.098  0.00  0.00    +0.181 C 
BRANCH   7   8
ATOM      8  O   UNL     1      -1.367   1.033  -0.611  0.00  0.00    -0.393 OA
ATOM      9  H   UNL     1      -2.276   1.368  -0.395  0.00  0.00    +0.209 HD
ENDBRANCH   7   8
ENDBRANCH   6   7
ENDBRANCH   1   6
TORSDOF 4
REMARK  Name = 
REMARK  12 active torsions:
REMARK  status: ('A' for Active; 'I' for Inactive)
REMARK    1  A    between atoms: O_1  and  C_2
REMARK    2  A    between atoms: C_2  and  C_3
REMARK    3  A    between atoms: C_3  and  S_4
REMARK    4  A    between atoms: S_4  and  O_5
REMARK    5  A    between atoms: O_8  and  C_9
REMARK    6  A    between atoms: C_9  and  C_10
REMARK    7  A    between atoms: C_10  and  S_11
REMARK    8  A    between atoms: S_11  and  O_12
REMARK    9  A    between atoms: N_15  and  C_16
REMARK   10  A    between atoms: C_16  and  N_17
REMARK   11  A    between atoms: C_22  and  C_23
REMARK   12  A    between atoms: C_27  and  C_31
REMARK                            x       y       z     vdW  Elec       q    Type
REMARK                         _______ _______ _______ _____ _____    ______ ____
ROOT
ATOM      1  S   UNL     1       1.336   0.029   0.623  0.00  0.00    +0.082 S 
ATOM      2  O   UNL     1       2.683  -0.594   0.386  0.00  0.00    -0.147 OA
ATOM      3  O   UNL     1       1.001  -0.067   2.084  0.00  0.00    -0.147 OA
ENDROOT
BRANCH   1   4
ATOM      4  O   UNL     1       1.385   1.647   0.170  0.00  0.00    -0.254 OA
ATOM      5  H   UNL     1       1.551   1.633  -0.806  0.00  0.00    +0.244 HD
ENDBRANCH   1   4
BRANCH   1   6
ATOM      6  C   UNL     1       0.103  -0.843  -0.333  0.00  0.00    +0.225 C 
BRANCH   6   7
ATOM      7  C   UNL     1      -1.296  -0.280  -0.093  0.00  0.00    +0.181 C 
BRANCH   7   8
ATOM      8  O   UNL     1      -1.381   1.028  -0.588  0.00  0.00    -0.393 OA
ATOM      9  H   UNL     1      -2.293   1.348  -0.366  0.00  0.00    +0.209 HD
ENDBRANCH   7   8
ENDBRANCH   6   7
ENDBRANCH   1   6
TORSDOF 4
REMARK  Name = 
REMARK  12 active torsions:
REMARK  status: ('A' for Active; 'I' for Inactive)
REMARK    1  A    between atoms: O_1  and  C_2
REMARK    2  A    between atoms: C_2  and  C_3
REMARK    3  A    between atoms: C_3  and  S_4
REMARK    4  A    between atoms: S_4  and  O_5
REMARK    5  A    between atoms: O_8  and  C_9
REMARK    6  A    between atoms: C_9  and  C_10
REMARK    7  A    between atoms: C_10  and  S_11
REMARK    8  A    between atoms: S_11  and  O_12
REMARK    9  A    between atoms: N_15  and  C_16
REMARK   10  A    between atoms: C_16  and  N_17
REMARK   11  A    between atoms: C_22  and  C_23
REMARK   12  A    between atoms: C_27  and  C_31
REMARK                            x       y       z     vdW  Elec       q    Type
REMARK                         _______ _______ _______ _____ _____    ______ ____
ROOT
ATOM      1  C   UNL     1      -5.669  -1.377  -0.846  0.00  0.00    +0.086 C 
ATOM      2  C   UNL     1      -4.414  -0.901  -0.583  0.00  0.00    +0.010 A 
ATOM      3  C   UNL     1      -3.363  -1.752  -0.165  0.00  0.00    +0.011 A 
ATOM      4  C   UNL     1      -2.083  -1.253   0.100  0.00  0.00    +0.008 A 
ATOM      5  C   UNL     1      -1.804   0.123  -0.022  0.00  0.00    -0.025 A 
ATOM      6  C   UNL     1      -0.585   0.649   0.232  0.00  0.00    +0.008 C 
ATOM      7  C   UNL     1      -2.841   0.972  -0.441  0.00  0.00    +0.008 A 
ATOM      8  C   UNL     1      -4.117   0.475  -0.716  0.00  0.00    +0.011 A 
ENDROOT
BRANCH   6   9
ATOM      9  C   UNL     1       0.566  -0.115   0.765  0.00  0.00    +0.012 C 
ATOM     10  C   UNL     1       1.862   0.215   0.576  0.00  0.00    +0.022 C 
ATOM     11  C   UNL     1       2.901  -0.540   1.312  0.00  0.00    +0.012 C 
ATOM     12  C   UNL     1       4.194  -0.205   1.227  0.00  0.00    +0.012 C 
ATOM     13  C   UNL     1       4.661   0.936   0.392  0.00  0.00    +0.018 C 
ATOM     14  C   UNL     1       3.776   1.622  -0.355  0.00  0.00    +0.062 C 
ATOM     15  C   UNL     1       2.343   1.281  -0.345  0.00  0.00    +0.187 C 
ATOM     16  O   UNL     1       1.573   1.869  -1.150  0.00  0.00    -0.287 OA
BRANCH  13  17
ATOM     17  C   UNL     1       6.104   1.290   0.339  0.00  0.00    +0.116 C 
ATOM     18  N   UNL     1       6.634   1.910  -0.835  0.00  0.00    -0.343 N 
ATOM     19  N   UNL     1       6.896   1.058   1.341  0.00  0.00    -0.285 NA
ATOM     20  H   UNL     1       7.649   2.146  -0.925  0.00  0.00    +0.144 HD
ATOM     21  H   UNL     1       7.649   2.138  -0.906  0.00  0.00    +0.144 HD
ATOM     22  H   UNL     1       6.578   0.639   2.242  0.00  0.00    +0.188 HD
ENDBRANCH  13  17
ENDBRANCH   6   9
BRANCH   1  23
ATOM     23  N   UNL     1      -6.789  -0.490  -0.988  0.00  0.00    -0.346 N 
ATOM     24  H   UNL     1      -7.694  -0.865  -1.348  0.00  0.00    +0.143 HD
ATOM     25  H   UNL     1      -6.807   0.468  -0.577  0.00  0.00    +0.143 HD
ENDBRANCH   1  23
BRANCH   1  26
ATOM     26  N   UNL     1      -5.950  -2.778  -0.988  0.00  0.00    -0.346 N 
ATOM     27  H   UNL     1      -5.232  -3.501  -1.198  0.00  0.00    +0.143 HD
ATOM     28  H   UNL     1      -5.218  -3.493  -1.199  0.00  0.00    +0.143 HD
ENDBRANCH   1  26
TORSDOF 4
