REMARK  Name = 
REMARK  9 active torsions:
REMARK  status: ('A' for Active; 'I' for Inactive)
REMARK    1  A    between atoms: O_1  and  C_2
REMARK    2  A    between atoms: C_2  and  C_3
REMARK    3  A    between atoms: C_3  and  O_4
REMARK    4  A    between atoms: O_4  and  C_5
REMARK    5  A    between atoms: C_5  and  C_6
REMARK    6  A    between atoms: C_6  and  N_7
REMARK    7  A    between atoms: N_10  and  C_13
REMARK    8  A    between atoms: C_13  and  C_14
REMARK    9  A    between atoms: C_13  and  C_20
REMARK                            x       y       z     vdW  Elec       q    Type
REMARK                         _______ _______ _______ _____ _____    ______ ____
ROOT
ATOM      1  C   UNL     1      -2.254   0.264   0.781  0.00  0.00    +0.117 C 
ENDROOT
BRANCH   1   2
ATOM      2  C   UNL     1      -2.829  -1.028   0.221  0.00  0.00    -0.026 A 
ATOM      3  C   UNL     1      -4.117  -1.443   0.607  0.00  0.00    +0.007 A 
ATOM      4  C   UNL     1      -4.675  -2.607   0.071  0.00  0.00    +0.020 A 
ATOM      5  C   UNL     1      -3.962  -3.361  -0.866  0.00  0.00    +0.041 A 
ATOM      6 CL   UNL     1      -4.666  -4.820  -1.537  0.00  0.00    -0.084 Cl
ATOM      7  C   UNL     1      -2.688  -2.949  -1.269  0.00  0.00    +0.020 A 
ATOM      8  C   UNL     1      -2.125  -1.787  -0.735  0.00  0.00    +0.007 A 
ENDBRANCH   1   2
BRANCH   1  12
ATOM      9  N   UNL     1       1.848   0.047   1.631  0.00  0.00    -0.298 NA
ATOM     10  C   UNL     1       1.208   1.310   2.044  0.00  0.00    +0.100 C 
ATOM     11  C   UNL     1      -0.213   1.463   1.452  0.00  0.00    +0.100 C 
ATOM     12  N   UNL     1      -0.787   0.163   1.020  0.00  0.00    -0.289 NA
ATOM     13  C   UNL     1      -0.471  -0.865   2.034  0.00  0.00    +0.100 C 
ATOM     14  C   UNL     1       1.050  -1.124   2.068  0.00  0.00    +0.100 C 
BRANCH   9  15
ATOM     15  C   UNL     1       2.158   0.019   0.182  0.00  0.00    +0.112 C 
BRANCH  15  16
ATOM     16  C   UNL     1       3.461  -0.737  -0.067  0.00  0.00    +0.175 C 
BRANCH  16  17
ATOM     17  O   UNL     1       4.520  -0.072   0.590  0.00  0.00    -0.376 OA
BRANCH  17  18
ATOM     18  C   UNL     1       5.760  -0.685   0.291  0.00  0.00    +0.187 C 
BRANCH  18  19
ATOM     19  C   UNL     1       6.585   0.215  -0.630  0.00  0.00    +0.184 C 
BRANCH  19  20
ATOM     20  O   UNL     1       5.952   0.368  -1.871  0.00  0.00    -0.393 OA
ATOM     21  H   UNL     1       6.114  -0.469  -2.378  0.00  0.00    +0.209 HD
ENDBRANCH  19  20
ENDBRANCH  18  19
ENDBRANCH  17  18
ENDBRANCH  16  17
ENDBRANCH  15  16
ENDBRANCH   9  15
ENDBRANCH   1  12
BRANCH   1  22
ATOM     22  C   UNL     1      -2.600   1.377  -0.195  0.00  0.00    -0.026 A 
ATOM     23  C   UNL     1      -3.654   2.263   0.095  0.00  0.00    +0.005 A 
ATOM     24  C   UNL     1      -4.006   3.266  -0.814  0.00  0.00    +0.000 A 
ATOM     25  C   UNL     1      -3.316   3.391  -2.022  0.00  0.00    +0.000 A 
ATOM     26  C   UNL     1      -2.274   2.512  -2.325  0.00  0.00    +0.000 A 
ATOM     27  C   UNL     1      -1.919   1.507  -1.421  0.00  0.00    +0.005 A 
ENDBRANCH   1  22
TORSDOF 9
