REMARK  Name = 
REMARK  7 active torsions:
REMARK  status: ('A' for Active; 'I' for Inactive)
REMARK    1  A    between atoms: C_1  and  N_2
REMARK    2  A    between atoms: C_8  and  O_10
REMARK    3  A    between atoms: O_10  and  C_11
REMARK    4  A    between atoms: C_11  and  C_13
REMARK    5  A    between atoms: C_13  and  C_14
REMARK    6  A    between atoms: C_13  and  C_16
REMARK    7  A    between atoms: C_14  and  O_15
REMARK                            x       y       z     vdW  Elec       q    Type
REMARK                         _______ _______ _______ _____ _____    ______ ____
ROOT
ATOM      1  C   UNL     1       1.144  -0.955  -0.238  0.00  0.00    +0.317 C 
ATOM      2  O   UNL     1       0.944  -1.824   0.656  0.00  0.00    -0.250 OA
ENDROOT
BRANCH   1   3
ATOM      3  O   UNL     1       0.211   0.064  -0.461  0.00  0.00    -0.461 OA
BRANCH   3  11
ATOM      4  C   UNL     1      -4.942   0.602   1.507  0.00  0.00    +0.105 C 
ATOM      5  N   UNL     1      -3.585   0.458   0.951  0.00  0.00    -0.299 NA
ATOM      6  C   UNL     1      -3.497  -0.607  -0.055  0.00  0.00    +0.060 C 
ATOM      7  C   UNL     1      -4.051  -0.011  -1.360  0.00  0.00    +0.020 C 
ATOM      8  C   UNL     1      -3.834   1.486  -1.207  0.00  0.00    +0.020 C 
ATOM      9  C   UNL     1      -3.168   1.631   0.171  0.00  0.00    +0.060 C 
ATOM     10  C   UNL     1      -1.619   1.586   0.037  0.00  0.00    +0.063 C 
ATOM     11  C   UNL     1      -1.035   0.158   0.230  0.00  0.00    +0.179 C 
ATOM     12  C   UNL     1      -1.997  -0.982  -0.218  0.00  0.00    +0.063 C 
ENDBRANCH   3  11
ENDBRANCH   1   3
BRANCH   1  13
ATOM     13  C   UNL     1       2.419  -0.963  -1.037  0.00  0.00    +0.153 C 
BRANCH  13  14
ATOM     14  C   UNL     1       3.515  -0.229  -0.287  0.00  0.00    -0.032 A 
ATOM     15  C   UNL     1       3.965  -0.682   0.969  0.00  0.00    +0.004 A 
ATOM     16  C   UNL     1       4.979   0.003   1.646  0.00  0.00    +0.000 A 
ATOM     17  C   UNL     1       5.553   1.143   1.080  0.00  0.00    +0.000 A 
ATOM     18  C   UNL     1       5.115   1.602  -0.164  0.00  0.00    +0.000 A 
ATOM     19  C   UNL     1       4.102   0.922  -0.846  0.00  0.00    +0.004 A 
ENDBRANCH  13  14
BRANCH  13  20
ATOM     20  C   UNL     1       2.846  -2.390  -1.418  0.00  0.00    +0.175 C 
BRANCH  20  21
ATOM     21  O   UNL     1       3.969  -2.344  -2.255  0.00  0.00    -0.394 OA
ATOM     22  H   UNL     1       4.180  -3.286  -2.486  0.00  0.00    +0.209 HD
ENDBRANCH  20  21
ENDBRANCH  13  20
ENDBRANCH   1  13
TORSDOF 6
