REMARK  Name = 
REMARK  16 active torsions:
REMARK  status: ('A' for Active; 'I' for Inactive)
REMARK    1  A    between atoms: C_1  and  C_2
REMARK    2  A    between atoms: C_2  and  C_3
REMARK    3  A    between atoms: C_3  and  C_4
REMARK    4  A    between atoms: C_4  and  C_5
REMARK    5  A    between atoms: C_5  and  N_6
REMARK    6  A    between atoms: N_6  and  C_7
REMARK    7  A    between atoms: N_6  and  C_8
REMARK    8  A    between atoms: C_8  and  C_9
REMARK    9  A    between atoms: C_9  and  C_10
REMARK   10  A    between atoms: C_10  and  O_11
REMARK   11  A    between atoms: C_10  and  P_12
REMARK   12  A    between atoms: C_10  and  P_16
REMARK   13  A    between atoms: P_12  and  O_13
REMARK   14  A    between atoms: P_12  and  O_14
REMARK   15  A    between atoms: P_16  and  O_17
REMARK   16  A    between atoms: P_16  and  O_18
REMARK                            x       y       z     vdW  Elec       q    Type
REMARK                         _______ _______ _______ _____ _____    ______ ____
ROOT
ATOM      1  C   UNL     1      -3.178  -0.335  -0.375  0.00  0.00    +0.268 C 
ENDROOT
BRANCH   1   2
ATOM      2  O   UNL     1      -3.065  -0.227  -1.772  0.00  0.00    -0.367 OA
ATOM      3  H   UNL     1      -2.974   0.737  -1.994  0.00  0.00    +0.212 HD
ENDBRANCH   1   2
BRANCH   1   4
ATOM      4  P   UNL     1      -3.347  -2.111   0.053  0.00  0.00    +0.371 P 
ATOM      5  O   UNL     1      -4.673  -2.637  -0.449  0.00  0.00    -0.255 OA
BRANCH   4   6
ATOM      6  O   UNL     1      -2.102  -3.009  -0.661  0.00  0.00    -0.322 OA
ATOM      7  H   UNL     1      -2.218  -2.878  -1.635  0.00  0.00    +0.220 HD
ENDBRANCH   4   6
BRANCH   4   8
ATOM      8  O   UNL     1      -3.275  -2.300   1.733  0.00  0.00    -0.322 OA
ATOM      9  H   UNL     1      -3.283  -3.279   1.878  0.00  0.00    +0.220 HD
ENDBRANCH   4   8
ENDBRANCH   1   4
BRANCH   1  10
ATOM     10  P   UNL     1      -4.695   0.543   0.176  0.00  0.00    +0.371 P 
ATOM     11  O   UNL     1      -4.560   2.024  -0.102  0.00  0.00    -0.255 OA
BRANCH  10  12
ATOM     12  O   UNL     1      -4.937   0.305   1.835  0.00  0.00    -0.322 OA
ATOM     13  H   UNL     1      -4.262   0.878   2.279  0.00  0.00    +0.220 HD
ENDBRANCH  10  12
BRANCH  10  14
ATOM     14  O   UNL     1      -6.040  -0.053  -0.663  0.00  0.00    -0.322 OA
ATOM     15  H   UNL     1      -5.856   0.146  -1.615  0.00  0.00    +0.220 HD
ENDBRANCH  10  14
ENDBRANCH   1  10
BRANCH   1  16
ATOM     16  C   UNL     1      -1.943   0.289   0.329  0.00  0.00    +0.075 C 
BRANCH  16  17
ATOM     17  C   UNL     1      -0.591  -0.306  -0.117  0.00  0.00    +0.088 C 
BRANCH  17  18
ATOM     18  N   UNL     1       0.538   0.583   0.243  0.00  0.00    -0.305 NA
ATOM     19  C   UNL     1       0.726   0.626   1.708  0.00  0.00    +0.104 C 
BRANCH  18  20
ATOM     20  C   UNL     1       1.787   0.139  -0.419  0.00  0.00    +0.084 C 
BRANCH  20  21
ATOM     21  C   UNL     1       2.686   1.348  -0.722  0.00  0.00    +0.015 C 
BRANCH  21  22
ATOM     22  C   UNL     1       4.035   0.934  -1.346  0.00  0.00    +0.001 C 
BRANCH  22  24
ATOM     23  C   UNL     1       5.059  -0.143   0.735  0.00  0.00    +0.004 C 
ATOM     24  C   UNL     1       5.201   0.929  -0.343  0.00  0.00    -0.003 C 
ENDBRANCH  22  24
ENDBRANCH  21  22
ENDBRANCH  20  21
ENDBRANCH  18  20
ENDBRANCH  17  18
ENDBRANCH  16  17
ENDBRANCH   1  16
TORSDOF 14
