REMARK  Name = 
REMARK  7 active torsions:
REMARK  status: ('A' for Active; 'I' for Inactive)
REMARK    1  A    between atoms: C_1  and  C_2
REMARK    2  A    between atoms: C_2  and  C_3
REMARK    3  A    between atoms: C_2  and  C_4
REMARK    4  A    between atoms: C_4  and  C_6
REMARK    5  A    between atoms: C_14  and  C_15
REMARK    6  A    between atoms: C_15  and  C_16
REMARK    7  A    between atoms: C_15  and  C_17
REMARK                            x       y       z     vdW  Elec       q    Type
REMARK                         _______ _______ _______ _____ _____    ______ ____
ROOT
ATOM      1  C   UNL     1      -0.288   0.224  -0.197  0.00  0.00    +0.066 A 
ATOM      2  C   UNL     1      -0.527   1.517   0.236  0.00  0.00    +0.078 A 
ATOM      3  C   UNL     1       0.353   2.585   0.425  0.00  0.00    +0.028 A 
ATOM      4  C   UNL     1      -0.187   3.807   0.854  0.00  0.00    +0.004 A 
ATOM      5  C   UNL     1      -1.572   3.936   1.069  0.00  0.00    +0.020 A 
ATOM      6  C   UNL     1      -2.409   2.834   0.845  0.00  0.00    +0.113 A 
ATOM      7  N   UNL     1      -1.846   1.670   0.433  0.00  0.00    -0.239 N 
ATOM      8  N   UNL     1      -2.491   0.552   0.152  0.00  0.00    -0.170 NA
ATOM      9  C   UNL     1      -1.567  -0.359  -0.236  0.00  0.00    +0.077 A 
ENDROOT
BRANCH   9  10
ATOM     10  C   UNL     1      -1.960  -1.765  -0.629  0.00  0.00    +0.034 C 
ATOM     11  C   UNL     1      -1.098  -2.835   0.048  0.00  0.00    +0.014 C 
ATOM     12  C   UNL     1      -1.985  -1.932  -2.151  0.00  0.00    +0.014 C 
ENDBRANCH   9  10
BRANCH   1  13
ATOM     13  C   UNL     1       1.018  -0.377  -0.532  0.00  0.00    +0.170 C 
ATOM     14  O   UNL     1       1.159  -0.981  -1.629  0.00  0.00    -0.292 OA
BRANCH  13  16
ATOM     15  C   UNL     1       2.414  -1.703   1.051  0.00  0.00    +0.015 C 
ATOM     16  C   UNL     1       2.172  -0.320   0.439  0.00  0.00    +0.054 C 
ATOM     17  C   UNL     1       3.441   0.196  -0.250  0.00  0.00    +0.015 C 
ENDBRANCH  13  16
ENDBRANCH   1  13
TORSDOF 3
