REMARK  Name = 
REMARK  8 active torsions:
REMARK  status: ('A' for Active; 'I' for Inactive)
REMARK    1  A    between atoms: C_1  and  C_2
REMARK    2  A    between atoms: C_2  and  C_3
REMARK    3  A    between atoms: C_2  and  C_4
REMARK    4  A    between atoms: C_4  and  C_5
REMARK    5  A    between atoms: C_8  and  C_11
REMARK    6  A    between atoms: C_11  and  C_12
REMARK    7  A    between atoms: C_11  and  C_13
REMARK    8  A    between atoms: C_13  and  O_14
REMARK                            x       y       z     vdW  Elec       q    Type
REMARK                         _______ _______ _______ _____ _____    ______ ____
ROOT
ATOM      1  C   UNL     1      -0.825  -0.651   0.461  0.00  0.00    -0.047 A 
ATOM      2  C   UNL     1       0.210   0.022   1.129  0.00  0.00    +0.004 A 
ATOM      3  C   UNL     1       1.478   0.121   0.549  0.00  0.00    +0.005 A 
ATOM      4  C   UNL     1       1.734  -0.450  -0.712  0.00  0.00    -0.034 A 
ATOM      5  C   UNL     1       0.692  -1.116  -1.380  0.00  0.00    +0.005 A 
ATOM      6  C   UNL     1      -0.576  -1.214  -0.799  0.00  0.00    +0.004 A 
ENDROOT
BRANCH   4   7
ATOM      7  C   UNL     1       3.101  -0.342  -1.356  0.00  0.00    +0.124 C 
ATOM      8  C   UNL     1       3.447   1.117  -1.679  0.00  0.00    +0.024 C 
BRANCH   7   9
ATOM      9  C   UNL     1       4.149  -0.980  -0.485  0.00  0.00    +0.312 C 
ATOM     10  O   UNL     1       4.439  -2.196  -0.644  0.00  0.00    -0.250 OA
BRANCH   9  11
ATOM     11  O   UNL     1       4.768  -0.252   0.529  0.00  0.00    -0.480 OA
ATOM     12  H   UNL     1       5.460  -0.682   1.130  0.00  0.00    +0.295 HD
ENDBRANCH   9  11
ENDBRANCH   7   9
ENDBRANCH   4   7
BRANCH   1  13
ATOM     13  C   UNL     1      -2.201  -0.738   1.072  0.00  0.00    +0.038 C 
BRANCH  13  15
ATOM     14  C   UNL     1      -4.604   0.019   0.948  0.00  0.00    +0.007 C 
ATOM     15  C   UNL     1      -3.179   0.281   0.447  0.00  0.00    -0.013 C 
ATOM     16  C   UNL     1      -2.769   1.727   0.762  0.00  0.00    +0.007 C 
ENDBRANCH  13  15
ENDBRANCH   1  13
TORSDOF 5
