REMARK  Name = 
REMARK  34 active torsions:
REMARK  status: ('A' for Active; 'I' for Inactive)
REMARK    1  A    between atoms: C_3  and  C_79
REMARK    2  A    between atoms: C_5  and  C_7
REMARK    3  A    between atoms: C_17  and  CA_19
REMARK    4  A    between atoms: CA_19  and  CB_20
REMARK    5  A    between atoms: CA_19  and  N_22
REMARK    6  A    between atoms: CB_20  and  OG_21
REMARK    7  A    between atoms: C_23  and  C_25
REMARK    8  A    between atoms: C_25  and  C_26
REMARK    9  A    between atoms: C_25  and  N_32
REMARK   10  A    between atoms: C_26  and  C_27
REMARK   11  A    between atoms: C_33  and  CA_35
REMARK   12  A    between atoms: CA_35  and  N_36
REMARK   13  A    between atoms: C_37  and  CA_39
REMARK   14  A    between atoms: CG_41  and  OD_42
REMARK   15  A    between atoms: C_45  and  CA_47
REMARK   16  A    between atoms: C_52  and  CA_54
REMARK   17  A    between atoms: CA_54  and  CB_55
REMARK   18  A    between atoms: CA_54  and  N_62
REMARK   19  A    between atoms: CB_55  and  CG_56
REMARK   20  A    between atoms: CG_56  and  CD_57
REMARK   21  A    between atoms: CD_57  and  NE_58
REMARK   22  A    between atoms: C_63  and  CA_65
REMARK   23  A    between atoms: CA_65  and  N_66
REMARK   24  A    between atoms: CA_65  and  CB_67
REMARK   25  A    between atoms: CB_67  and  CG_68
REMARK   26  A    between atoms: CG_68  and  CD_69
REMARK   27  A    between atoms: CD_69  and  NE_70
REMARK   28  A    between atoms: N_81  and  CA_82
REMARK   29  A    between atoms: CA_82  and  CB_83
REMARK   30  A    between atoms: CA_82  and  C_90
REMARK   31  A    between atoms: CB_83  and  CG_84
REMARK   32  A    between atoms: CG_84  and  CD_85
REMARK   33  A    between atoms: CD_85  and  NE_86
REMARK   34  A    between atoms: C_90  and  O_91
REMARK                            x       y       z     vdW  Elec       q    Type
REMARK                         _______ _______ _______ _____ _____    ______ ____
ROOT
ATOM      1  C   UNK A   6      -1.729   1.316  -2.761  0.00  0.00    +0.164 C 
ENDROOT
BRANCH   1   3
ATOM      2  N   SER A   7      -3.332   2.279  -1.042  0.00  0.00    -0.301 N 
ATOM      3  C   UNK A   6      -2.118   1.568  -1.335  0.00  0.00    +0.234 C 
ATOM      4  O   UNK A   6      -1.381   1.155  -0.393  0.00  0.00    -0.274 OA
ATOM      5  H   SER A   7      -3.751   2.840  -1.817  0.00  0.00    +0.150 HD
BRANCH   2   6
ATOM      6  CA  SER A   7      -3.854   2.474   0.317  0.00  0.00    +0.185 C 
BRANCH   6  17
ATOM      7  C   UNK A   8      -5.903   0.871   2.322  0.00  0.00    +0.167 C 
ATOM      8  C   UNK A   8      -6.319   1.019   3.801  0.00  0.00    +0.067 C 
ATOM      9  C   UNK A   8      -7.612   1.772   3.941  0.00  0.00    -0.040 A 
ATOM     10  C   UNK A   8      -8.564   1.414   4.912  0.00  0.00    +0.004 A 
ATOM     11  C   UNK A   8      -9.780   2.106   4.986  0.00  0.00    +0.000 A 
ATOM     12  C   UNK A   8     -10.030   3.172   4.120  0.00  0.00    +0.000 A 
ATOM     13  C   UNK A   8      -9.067   3.569   3.196  0.00  0.00    +0.005 A 
ATOM     14  C   UNK A   8      -7.853   2.868   3.101  0.00  0.00    -0.027 A 
ATOM     15  C   UNK A   8      -6.811   3.286   2.105  0.00  0.00    +0.144 C 
ATOM     16  N   UNK A   8      -6.064   2.133   1.569  0.00  0.00    -0.284 N 
ATOM     17  C   SER A   7      -5.364   2.323   0.334  0.00  0.00    +0.239 C 
ATOM     18  O   SER A   7      -6.028   2.501  -0.723  0.00  0.00    -0.273 OA
BRANCH   7  23
ATOM     19  C   UNK A   9     -10.247  -1.356   1.942  0.00  0.00    +0.012 C 
ATOM     20  C   UNK A   9     -10.351   0.110   1.508  0.00  0.00    +0.037 C 
ATOM     21  C   UNK A   9      -8.975   0.457   0.946  0.00  0.00    +0.163 C 
ATOM     22  N   UNK A   9      -8.062  -0.406   1.693  0.00  0.00    -0.285 N 
ATOM     23  C   UNK A   8      -6.632  -0.270   1.633  0.00  0.00    +0.237 C 
ATOM     24  O   UNK A   8      -5.964  -1.123   0.994  0.00  0.00    -0.274 OA
ATOM     25  C   UNK A   9      -8.733  -1.651   2.064  0.00  0.00    +0.080 C 
ATOM     26  C   UNK A   9      -8.328  -2.134   3.465  0.00  0.00    +0.023 C 
ATOM     27  C   UNK A   9      -9.204  -3.316   3.907  0.00  0.00    +0.002 C 
ATOM     28  C   UNK A   9     -10.720  -3.045   3.765  0.00  0.00    +0.000 C 
ATOM     29  C   UNK A   9     -11.044  -1.643   3.233  0.00  0.00    +0.005 C 
BRANCH  21  30
ATOM     30  C   UNK A   9      -8.930   0.152  -0.532  0.00  0.00    +0.234 C 
ATOM     31  O   UNK A   9      -8.315  -0.861  -0.965  0.00  0.00    -0.274 OA
ATOM     32  N   ARG A  10      -9.665   0.980  -1.447  0.00  0.00    -0.301 N 
ATOM     33  H   ARG A  10      -9.970   1.928  -1.127  0.00  0.00    +0.150 HD
BRANCH  32  34
ATOM     34  CA  ARG A  10     -10.202   0.466  -2.709  0.00  0.00    +0.182 C 
BRANCH  34  35
ATOM     35  C   ARG A  10      -9.666   1.301  -3.848  0.00  0.00    +0.325 C 
ATOM     36  OXT ARG A  10      -8.754   0.842  -4.585  0.00  0.00    -0.249 OA
BRANCH  35  37
ATOM     37  O   ARG A  10     -10.113   2.603  -4.071  0.00  0.00    -0.479 OA
ATOM     38  H   ARG A  10     -10.773   3.045  -3.443  0.00  0.00    +0.295 HD
ENDBRANCH  35  37
ENDBRANCH  34  35
BRANCH  34  39
ATOM     39  CB  ARG A  10     -11.741   0.453  -2.649  0.00  0.00    +0.035 C 
BRANCH  39  40
ATOM     40  CG  ARG A  10     -12.377  -0.329  -3.809  0.00  0.00    +0.026 C 
BRANCH  40  41
ATOM     41  CD  ARG A  10     -13.912  -0.291  -3.784  0.00  0.00    +0.145 C 
BRANCH  41  42
ATOM     42  NE  ARG A  10     -14.460  -0.973  -2.607  0.00  0.00    -0.253 NA
ATOM     43  CZ  ARG A  10     -14.835  -0.440  -1.477  0.00  0.00    +0.188 C 
ATOM     44  NH1 ARG A  10     -15.375  -1.292  -0.470  0.00  0.00    -0.370 N 
ATOM     45  NH2 ARG A  10     -14.759   0.969  -1.239  0.00  0.00    -0.370 N 
ATOM     46 HH11 ARG A  10     -15.636  -0.841   0.437  0.00  0.00    +0.159 HD
ATOM     47 HH12 ARG A  10     -15.726  -1.012   0.472  0.00  0.00    +0.159 HD
ATOM     48 HH21 ARG A  10     -14.264   1.620  -1.877  0.00  0.00    +0.159 HD
ATOM     49 HH22 ARG A  10     -15.251   1.397  -0.426  0.00  0.00    +0.159 HD
ENDBRANCH  41  42
ENDBRANCH  40  41
ENDBRANCH  39  40
ENDBRANCH  34  39
ENDBRANCH  32  34
ENDBRANCH  21  30
ENDBRANCH   7  23
ENDBRANCH   6  17
BRANCH   6  50
ATOM     50  CB  SER A   7      -3.464   3.869   0.817  0.00  0.00    +0.187 C 
BRANCH  50  51
ATOM     51  OG  SER A   7      -2.071   4.021   0.756  0.00  0.00    -0.393 OA
ATOM     52  H   SER A   7      -1.879   4.949   1.050  0.00  0.00    +0.209 HD
ENDBRANCH  50  51
ENDBRANCH   6  50
ENDBRANCH   2   6
ENDBRANCH   1   3
BRANCH   1  53
ATOM     53  N   UNK A   6      -0.333   0.886  -2.884  0.00  0.00    -0.302 N 
ATOM     54  C   GLY A   5       0.765   1.805  -2.713  0.00  0.00    +0.231 C 
ATOM     55  O   GLY A   5       0.566   2.928  -2.179  0.00  0.00    -0.274 OA
ATOM     56  H   UNK A   6      -0.118  -0.061  -3.265  0.00  0.00    +0.150 HD
BRANCH  54  57
ATOM     57  CA  GLY A   5       2.149   1.407  -3.126  0.00  0.00    +0.200 C 
BRANCH  57  58
ATOM     58  N   GLY A   5       2.640   0.305  -2.296  0.00  0.00    -0.305 N 
ATOM     59  C   HYP A   4       2.826   0.430  -0.884  0.00  0.00    +0.234 C 
ATOM     60  O   HYP A   4       2.513   1.497  -0.288  0.00  0.00    -0.274 OA
ATOM     61  H   GLY A   5       2.877  -0.595  -2.763  0.00  0.00    +0.149 HD
BRANCH  59  62
ATOM     62  CA  HYP A   4       3.325  -0.739  -0.067  0.00  0.00    +0.164 C 
ATOM     63  CB  HYP A   4       2.239  -1.804   0.109  0.00  0.00    +0.065 C 
ATOM     64  CG  HYP A   4       2.632  -2.975  -0.790  0.00  0.00    +0.134 C 
ATOM     65  CD  HYP A   4       4.121  -2.783  -1.095  0.00  0.00    +0.140 C 
ATOM     66  N   HYP A   4       4.431  -1.409  -0.739  0.00  0.00    -0.286 N 
ATOM     67  C   PRO A   3       5.710  -0.784  -0.973  0.00  0.00    +0.237 C 
ATOM     68  O   PRO A   3       5.889   0.414  -0.627  0.00  0.00    -0.274 OA
BRANCH  67  69
ATOM     69  CA  PRO A   3       6.815  -1.512  -1.714  0.00  0.00    +0.162 C 
ATOM     70  CB  PRO A   3       6.734  -1.230  -3.215  0.00  0.00    +0.033 C 
ATOM     71  CG  PRO A   3       7.744  -0.118  -3.464  0.00  0.00    +0.021 C 
ATOM     72  CD  PRO A   3       8.777  -0.265  -2.356  0.00  0.00    +0.109 C 
ATOM     73  N   PRO A   3       8.126  -1.020  -1.297  0.00  0.00    -0.288 N 
ATOM     74  C   ARG A   2       8.612  -1.225   0.054  0.00  0.00    +0.237 C 
ATOM     75  O   ARG A   2       7.798  -1.677   0.913  0.00  0.00    -0.274 OA
BRANCH  74  76
ATOM     76  CA  ARG A   2      10.034  -0.989   0.540  0.00  0.00    +0.159 C 
BRANCH  76  77
ATOM     77  N   ARG A   2      10.871  -0.174  -0.366  0.00  0.00    -0.303 N 
ATOM     78  C   ARG A   1      11.787  -0.649  -1.384  0.00  0.00    +0.230 C 
ATOM     79  O   ARG A   1      11.986  -1.882  -1.532  0.00  0.00    -0.274 OA
ATOM     80  H   ARG A   2      10.774   0.865  -0.256  0.00  0.00    +0.149 HD
BRANCH  78  81
ATOM     81  CA  ARG A   1      12.466   0.346  -2.308  0.00  0.00    +0.138 C 
BRANCH  81  82
ATOM     82  N   ARG A   1      13.132  -0.313  -3.440  0.00  0.00    -0.320 NA
ATOM     83  H1  ARG A   1      12.403  -0.836  -3.983  0.00  0.00    +0.119 HD
ATOM     84  H2  ARG A   1      13.834  -1.004  -3.090  0.00  0.00    +0.119 HD
ENDBRANCH  81  82
BRANCH  81  85
ATOM     85  CB  ARG A   1      13.458   1.284  -1.577  0.00  0.00    +0.030 C 
BRANCH  85  86
ATOM     86  CG  ARG A   1      14.432   0.556  -0.649  0.00  0.00    +0.025 C 
BRANCH  86  87
ATOM     87  CD  ARG A   1      15.503   1.476  -0.042  0.00  0.00    +0.145 C 
BRANCH  87  88
ATOM     88  NE  ARG A   1      14.885   2.641   0.588  0.00  0.00    -0.253 NA
ATOM     89  CZ  ARG A   1      15.392   3.368   1.544  0.00  0.00    +0.188 C 
ATOM     90  NH1 ARG A   1      16.642   3.054   2.172  0.00  0.00    -0.370 N 
ATOM     91  NH2 ARG A   1      14.692   4.537   1.966  0.00  0.00    -0.370 N 
ATOM     92 HH11 ARG A   1      17.002   2.075   2.222  0.00  0.00    +0.159 HD
ATOM     93 HH12 ARG A   1      17.123   3.767   2.764  0.00  0.00    +0.159 HD
ATOM     94 HH21 ARG A   1      13.795   4.827   1.502  0.00  0.00    +0.159 HD
ATOM     95 HH22 ARG A   1      13.799   4.834   1.512  0.00  0.00    +0.159 HD
ENDBRANCH  87  88
ENDBRANCH  86  87
ENDBRANCH  85  86
ENDBRANCH  81  85
ENDBRANCH  78  81
ENDBRANCH  76  77
BRANCH  76  96
ATOM     96  CB  ARG A   2      10.668  -2.340   0.969  0.00  0.00    +0.033 C 
BRANCH  96  97
ATOM     97  CG  ARG A   2      12.071  -2.202   1.588  0.00  0.00    +0.026 C 
BRANCH  97  98
ATOM     98  CD  ARG A   2      12.041  -1.942   3.102  0.00  0.00    +0.145 C 
BRANCH  98  99
ATOM     99  NE  ARG A   2      13.354  -1.508   3.589  0.00  0.00    -0.253 NA
ATOM    100  CZ  ARG A   2      14.441  -2.221   3.666  0.00  0.00    +0.188 C 
ATOM    101  NH1 ARG A   2      15.657  -1.600   4.075  0.00  0.00    -0.370 N 
ATOM    102  NH2 ARG A   2      14.472  -3.600   3.273  0.00  0.00    -0.370 N 
ATOM    103 HH11 ARG A   2      15.690  -0.591   4.361  0.00  0.00    +0.159 HD
ATOM    104 HH12 ARG A   2      15.675  -0.594   4.357  0.00  0.00    +0.159 HD
ATOM    105 HH21 ARG A   2      13.591  -4.135   3.130  0.00  0.00    +0.159 HD
ATOM    106 HH22 ARG A   2      15.340  -3.951   2.807  0.00  0.00    +0.159 HD
ENDBRANCH  98  99
ENDBRANCH  97  98
ENDBRANCH  96  97
ENDBRANCH  76  96
ENDBRANCH  74  76
ENDBRANCH  67  69
BRANCH  64 107
ATOM    107  OD  HYP A   4       1.883  -2.938  -1.974  0.00  0.00    -0.390 OA
ATOM    108  HD  HYP A   4       1.966  -3.837  -2.391  0.00  0.00    +0.210 HD
ENDBRANCH  64 107
ENDBRANCH  59  62
ENDBRANCH  57  58
ENDBRANCH  54  57
ENDBRANCH   1  53
BRANCH   1 109
ATOM    109  C   UNK A   6      -2.694   0.317  -3.439  0.00  0.00    +0.074 C 
BRANCH 109 110
ATOM    110  C   UNK A   6      -2.575  -1.108  -2.972  0.00  0.00    -0.008 A 
ATOM    111  C   UNK A   6      -2.685  -2.220  -3.804  0.00  0.00    +0.011 A 
ATOM    112  C   UNK A   6      -2.681  -3.438  -3.116  0.00  0.00    +0.008 A 
ATOM    113  C   UNK A   6      -2.596  -3.300  -1.736  0.00  0.00    +0.045 A 
ATOM    114  S   UNK A   6      -2.531  -1.655  -1.377  0.00  0.00    -0.102 S 
ENDBRANCH 109 110
ENDBRANCH   1 109
TORSDOF 34
