REMARK  Name = 
REMARK  15 active torsions:
REMARK  status: ('A' for Active; 'I' for Inactive)
REMARK    1  A    between atoms: C_1  and  C_2
REMARK    2  A    between atoms: C_2  and  C_3
REMARK    3  A    between atoms: C_4  and  C_5
REMARK    4  A    between atoms: C_5  and  C_6
REMARK    5  A    between atoms: C_7  and  C_8
REMARK    6  A    between atoms: C_8  and  C_9
REMARK    7  A    between atoms: C_10  and  C_11
REMARK    8  A    between atoms: C_11  and  C_12
REMARK    9  A    between atoms: C_13  and  C_14
REMARK   10  A    between atoms: C_14  and  C_15
REMARK   11  A    between atoms: C_16  and  C_17
REMARK   12  A    between atoms: C_17  and  C_18
REMARK   13  A    between atoms: C_18  and  C_19
REMARK   14  A    between atoms: C_19  and  C_20
REMARK   15  A    between atoms: C_20  and  O_21
REMARK                            x       y       z     vdW  Elec       q    Type
REMARK                         _______ _______ _______ _____ _____    ______ ____
ROOT
ATOM      1  C   UNL     1       0.771   0.125  -0.350  0.00  0.00    -0.027 C 
ATOM      2  C   UNL     1       1.353  -0.259   0.801  0.00  0.00    -0.027 C 
ENDROOT
BRANCH   1   3
ATOM      3  C   UNL     1       0.832   1.524  -0.910  0.00  0.00    +0.053 C 
BRANCH   3   5
ATOM      4  C   UNL     1      -1.592   2.191  -0.942  0.00  0.00    -0.027 C 
ATOM      5  C   UNL     1      -0.462   1.869  -1.597  0.00  0.00    -0.027 C 
BRANCH   4   6
ATOM      6  C   UNL     1      -1.680   2.285   0.562  0.00  0.00    +0.053 C 
BRANCH   6   8
ATOM      7  C   UNL     1      -3.990   1.363   1.007  0.00  0.00    -0.027 C 
ATOM      8  C   UNL     1      -3.110   2.384   1.022  0.00  0.00    -0.027 C 
BRANCH   7   9
ATOM      9  C   UNL     1      -3.702  -0.020   0.473  0.00  0.00    +0.053 C 
BRANCH   9  11
ATOM     10  C   UNL     1      -5.399  -0.384  -1.369  0.00  0.00    -0.031 C 
ATOM     11  C   UNL     1      -4.138  -0.130  -0.967  0.00  0.00    -0.027 C 
BRANCH  10  13
ATOM     12  C   UNL     1      -6.594  -2.184  -0.114  0.00  0.00    +0.008 C 
ATOM     13  C   UNL     1      -6.548  -0.694  -0.441  0.00  0.00    +0.023 C 
ENDBRANCH  10  13
ENDBRANCH   9  11
ENDBRANCH   7   9
ENDBRANCH   6   8
ENDBRANCH   4   6
ENDBRANCH   3   5
ENDBRANCH   1   3
BRANCH   2  14
ATOM     14  C   UNL     1       2.106   0.660   1.730  0.00  0.00    +0.053 C 
BRANCH  14  15
ATOM     15  C   UNL     1       3.366   1.200   1.100  0.00  0.00    -0.027 C 
ATOM     16  C   UNL     1       4.455   0.464   0.805  0.00  0.00    -0.031 C 
BRANCH  16  17
ATOM     17  C   UNL     1       4.565  -1.031   0.994  0.00  0.00    +0.027 C 
BRANCH  17  18
ATOM     18  C   UNL     1       4.318  -1.790  -0.321  0.00  0.00    +0.015 C 
BRANCH  18  19
ATOM     19  C   UNL     1       5.425  -1.591  -1.368  0.00  0.00    +0.121 C 
BRANCH  19  20
ATOM     20  C   UNL     1       6.731  -2.181  -0.920  0.00  0.00    +0.305 C 
ATOM     21  O   UNL     1       6.910  -3.427  -0.980  0.00  0.00    -0.251 OA
BRANCH  20  22
ATOM     22  O   UNL     1       7.738  -1.369  -0.403  0.00  0.00    -0.481 OA
ATOM     23  H   UNL     1       7.616  -0.366  -0.323  0.00  0.00    +0.295 HD
ENDBRANCH  20  22
ENDBRANCH  19  20
ENDBRANCH  18  19
ENDBRANCH  17  18
ENDBRANCH  16  17
ENDBRANCH  14  15
ENDBRANCH   2  14
TORSDOF 14
