REMARK  Name = 
REMARK  17 active torsions:
REMARK  status: ('A' for Active; 'I' for Inactive)
REMARK    1  A    between atoms: C_1  and  C_2
REMARK    2  A    between atoms: C_2  and  O_3
REMARK    3  A    between atoms: O_3  and  C_4
REMARK    4  A    between atoms: C_4  and  C_6
REMARK    5  A    between atoms: C_6  and  C_7
REMARK    6  A    between atoms: C_7  and  C_8
REMARK    7  A    between atoms: C_8  and  C_9
REMARK    8  A    between atoms: C_10  and  C_11
REMARK    9  A    between atoms: C_11  and  C_12
REMARK   10  A    between atoms: C_13  and  C_14
REMARK   11  A    between atoms: C_14  and  C_15
REMARK   12  A    between atoms: C_16  and  C_17
REMARK   13  A    between atoms: C_17  and  C_18
REMARK   14  A    between atoms: C_19  and  C_20
REMARK   15  A    between atoms: C_20  and  C_21
REMARK   16  A    between atoms: C_22  and  C_23
REMARK   17  A    between atoms: C_23  and  C_24
REMARK                            x       y       z     vdW  Elec       q    Type
REMARK                         _______ _______ _______ _____ _____    ______ ____
ROOT
ATOM      1  C   UNL     1       0.087   1.569  -2.563  0.00  0.00    -0.027 C 
ATOM      2  C   UNL     1       0.757   0.423  -2.784  0.00  0.00    -0.027 C 
ENDROOT
BRANCH   1   3
ATOM      3  C   UNL     1      -1.292   1.634  -1.961  0.00  0.00    +0.053 C 
BRANCH   3   5
ATOM      4  C   UNL     1      -2.103   0.742   0.267  0.00  0.00    -0.031 C 
ATOM      5  C   UNL     1      -1.219   1.448  -0.462  0.00  0.00    -0.027 C 
BRANCH   4   6
ATOM      6  C   UNL     1      -3.272  -0.029  -0.298  0.00  0.00    +0.027 C 
BRANCH   6   7
ATOM      7  C   UNL     1      -4.418   0.884  -0.772  0.00  0.00    +0.015 C 
BRANCH   7   8
ATOM      8  C   UNL     1      -5.032   1.736   0.353  0.00  0.00    +0.121 C 
BRANCH   8   9
ATOM      9  C   UNL     1      -5.671   0.895   1.417  0.00  0.00    +0.307 C 
ATOM     10  O   UNL     1      -5.426   1.128   2.630  0.00  0.00    -0.251 OA
BRANCH   9  11
ATOM     11  O   UNL     1      -6.565  -0.115   1.058  0.00  0.00    -0.465 OA
BRANCH  11  13
ATOM     12  C   UNL     1      -8.045  -1.994   1.302  0.00  0.00    +0.048 C 
ATOM     13  C   UNL     1      -7.221  -0.935   2.018  0.00  0.00    +0.229 C 
ENDBRANCH  11  13
ENDBRANCH   9  11
ENDBRANCH   8   9
ENDBRANCH   7   8
ENDBRANCH   6   7
ENDBRANCH   4   6
ENDBRANCH   3   5
ENDBRANCH   1   3
BRANCH   2  14
ATOM     14  C   UNL     1       0.188  -0.940  -2.479  0.00  0.00    +0.053 C 
BRANCH  14  15
ATOM     15  C   UNL     1       1.153  -2.045  -2.833  0.00  0.00    -0.027 C 
ATOM     16  C   UNL     1       2.299  -2.299  -2.168  0.00  0.00    -0.027 C 
BRANCH  16  17
ATOM     17  C   UNL     1       2.830  -1.477  -1.021  0.00  0.00    +0.053 C 
BRANCH  17  18
ATOM     18  C   UNL     1       3.806  -0.443  -1.518  0.00  0.00    -0.027 C 
ATOM     19  C   UNL     1       4.437   0.423  -0.707  0.00  0.00    -0.027 C 
BRANCH  19  20
ATOM     20  C   UNL     1       4.226   0.453   0.784  0.00  0.00    +0.053 C 
BRANCH  20  21
ATOM     21  C   UNL     1       5.105   1.488   1.434  0.00  0.00    -0.027 C 
ATOM     22  C   UNL     1       6.425   1.338   1.641  0.00  0.00    -0.031 C 
BRANCH  22  23
ATOM     23  C   UNL     1       7.203   0.089   1.322  0.00  0.00    +0.023 C 
ATOM     24  C   UNL     1       7.186  -0.877   2.502  0.00  0.00    +0.008 C 
ENDBRANCH  22  23
ENDBRANCH  20  21
ENDBRANCH  19  20
ENDBRANCH  17  18
ENDBRANCH  16  17
ENDBRANCH  14  15
ENDBRANCH   2  14
TORSDOF 15
