REMARK  Name = 
REMARK  10 active torsions:
REMARK  status: ('A' for Active; 'I' for Inactive)
REMARK    1  A    between atoms: C_1  and  C_2
REMARK    2  A    between atoms: C_4  and  O_10
REMARK    3  A    between atoms: C_6  and  N_7
REMARK    4  A    between atoms: C_8  and  O_9
REMARK    5  A    between atoms: O_10  and  C_11
REMARK    6  A    between atoms: C_13  and  O_14
REMARK    7  A    between atoms: C_13  and  C_34
REMARK    8  A    between atoms: C_18  and  O_19
REMARK    9  A    between atoms: C_32  and  O_33
REMARK   10  A    between atoms: C_34  and  C_35
REMARK                            x       y       z     vdW  Elec       q    Type
REMARK                         _______ _______ _______ _____ _____    ______ ____
ROOT
ATOM      1  C   UNL     1      -0.742   0.808  -0.017  0.00  0.00    +0.158 C 
ATOM      2  C   UNL     1      -1.154   1.629   1.227  0.00  0.00    +0.079 C 
ATOM      3  C   UNL     1      -0.190   2.824   1.548  0.00  0.00    +0.130 C 
ATOM      4  C   UNL     1       0.873   3.032   0.426  0.00  0.00    +0.082 C 
ATOM      5  C   UNL     1       1.562   1.722   0.109  0.00  0.00    +0.007 A 
ATOM      6  C   UNL     1       0.766   0.565   0.018  0.00  0.00    +0.030 A 
ATOM      7  C   UNL     1       1.399  -0.700  -0.085  0.00  0.00    +0.134 A 
ATOM      8  C   UNL     1       2.787  -0.771  -0.358  0.00  0.00    +0.078 A 
ATOM      9  C   UNL     1       3.469  -2.088  -0.544  0.00  0.00    +0.198 C 
ATOM     10  O   UNL     1       2.803  -3.158  -0.583  0.00  0.00    -0.286 OA
ATOM     11  C   UNL     1       4.940  -2.152  -0.691  0.00  0.00    +0.033 A 
ATOM     12  C   UNL     1       5.611  -3.389  -0.694  0.00  0.00    +0.012 A 
ATOM     13  C   UNL     1       6.997  -3.440  -0.851  0.00  0.00    +0.001 A 
ATOM     14  C   UNL     1       7.727  -2.261  -1.012  0.00  0.00    +0.001 A 
ATOM     15  C   UNL     1       7.072  -1.028  -1.015  0.00  0.00    +0.012 A 
ATOM     16  C   UNL     1       5.677  -0.964  -0.850  0.00  0.00    +0.033 A 
ATOM     17  C   UNL     1       4.974   0.334  -0.868  0.00  0.00    +0.198 C 
ATOM     18  O   UNL     1       5.561   1.344  -1.341  0.00  0.00    -0.286 OA
ATOM     19  C   UNL     1       3.554   0.418  -0.424  0.00  0.00    +0.078 A 
ATOM     20  C   UNL     1       2.950   1.655  -0.090  0.00  0.00    +0.132 A 
ENDROOT
BRANCH   3  21
ATOM     21  C   UNL     1      -0.994   4.110   1.730  0.00  0.00    +0.162 C 
ATOM     22  C   UNL     1      -1.839   4.680   0.626  0.00  0.00    +0.089 C 
ATOM     23  O   UNL     1      -0.952   4.711   2.795  0.00  0.00    -0.295 OA
ENDBRANCH   3  21
BRANCH   3  24
ATOM     24  O   UNL     1       0.478   2.509   2.752  0.00  0.00    -0.381 OA
ATOM     25  H   UNL     1       1.132   3.231   2.950  0.00  0.00    +0.211 HD
ENDBRANCH   3  24
BRANCH   7  26
ATOM     26  O   UNL     1       0.698  -1.890   0.121  0.00  0.00    -0.506 OA
ATOM     27  H   UNL     1      -0.080  -1.969   0.762  0.00  0.00    +0.292 HD
ENDBRANCH   7  26
BRANCH  20  28
ATOM     28  O   UNL     1       3.700   2.824   0.078  0.00  0.00    -0.506 OA
ATOM     29  H   UNL     1       4.698   2.831   0.237  0.00  0.00    +0.292 HD
ENDBRANCH  20  28
BRANCH   1  30
ATOM     30  O   UNL     1      -1.484  -0.393  -0.113  0.00  0.00    -0.343 OA
BRANCH  30  34
ATOM     31  C   UNL     1      -4.519  -1.985   2.195  0.00  0.00    +0.041 C 
ATOM     32  C   UNL     1      -3.953  -1.768   0.788  0.00  0.00    +0.148 C 
ATOM     33  O   UNL     1      -3.692  -0.392   0.589  0.00  0.00    -0.346 OA
ATOM     34  C   UNL     1      -2.827  -0.183  -0.522  0.00  0.00    +0.253 C 
ATOM     35  C   UNL     1      -3.138  -1.102  -1.735  0.00  0.00    +0.082 C 
ATOM     36  C   UNL     1      -4.587  -1.609  -1.704  0.00  0.00    +0.087 C 
ATOM     37  C   UNL     1      -4.891  -2.297  -0.337  0.00  0.00    +0.160 C 
BRANCH  36  38
ATOM     38  N   UNL     1      -5.498  -0.502  -2.016  0.00  0.00    -0.325 NA
ATOM     39  H   UNL     1      -6.460  -0.881  -2.170  0.00  0.00    +0.119 HD
ATOM     40  H   UNL     1      -5.534   0.175  -1.223  0.00  0.00    +0.119 HD
ENDBRANCH  36  38
BRANCH  37  41
ATOM     41  O   UNL     1      -6.257  -2.213  -0.002  0.00  0.00    -0.388 OA
ATOM     42  H   UNL     1      -6.446  -1.282   0.287  0.00  0.00    +0.210 HD
ENDBRANCH  37  41
ENDBRANCH  30  34
ENDBRANCH   1  30
TORSDOF 8
