REMARK  Name = 
REMARK  4 active torsions:
REMARK  status: ('A' for Active; 'I' for Inactive)
REMARK    1  A    between atoms: O5*_1  and  C5*_2
REMARK    2  A    between atoms: C5*_2  and  C4*_3
REMARK    3  A    between atoms: C1*_5  and  N_9
REMARK    4  A    between atoms: C3*_7  and  O3*_8
REMARK                            x       y       z     vdW  Elec       q    Type
REMARK                         _______ _______ _______ _____ _____    ______ ____
ROOT
ATOM      1  C4* UNL     1       0.998  -2.331  -0.655  0.00  0.00    +0.175 C 
ATOM      2  O4* UNL     1       2.153  -1.771  -1.322  0.00  0.00    -0.348 OA
ATOM      3  C1* UNL     1       3.357  -2.410  -0.846  0.00  0.00    +0.226 C 
ATOM      4  C2* UNL     1       2.948  -3.324   0.307  0.00  0.00    +0.088 C 
ATOM      5  C3* UNL     1       1.485  -3.604   0.038  0.00  0.00    +0.150 C 
ENDROOT
BRANCH   3   6
ATOM      6  N   UNL     1       4.297  -1.348  -0.471  0.00  0.00    -0.273 N 
ATOM      7  C   UNL     1       3.929  -0.458   0.521  0.00  0.00    +0.113 A 
ATOM      8  C   UNL     1       4.500   0.736   0.696  0.00  0.00    +0.094 A 
ATOM      9  I   UNL     1       3.695   2.121   1.958  0.00  0.00    -0.037 I 
ATOM     10  C   UNL     1       5.696   1.035  -0.122  0.00  0.00    +0.267 A 
ATOM     11  O   UNL     1       6.254   2.133  -0.118  0.00  0.00    -0.267 OA
ATOM     12  N   UNL     1       6.158  -0.001  -0.890  0.00  0.00    -0.274 N 
ATOM     13  C   UNL     1       5.433  -1.119  -1.245  0.00  0.00    +0.331 A 
ATOM     14  O   UNL     1       5.797  -1.826  -2.178  0.00  0.00    -0.246 OA
ATOM     15  H   UNL     1       6.980   0.194  -1.442  0.00  0.00    +0.173 HD
ENDBRANCH   3   6
BRANCH   5  16
ATOM     16  O3* UNL     1       1.374  -4.746  -0.805  0.00  0.00    -0.389 OA
ATOM     17  H3* UNL     1       1.798  -4.558  -1.661  0.00  0.00    +0.210 HD
ENDBRANCH   5  16
BRANCH   1  18
ATOM     18  C5* UNL     1       0.428  -1.309   0.349  0.00  0.00    +0.190 C 
BRANCH  18  19
ATOM     19  O5* UNL     1       0.773   0.034   0.032  0.00  0.00    -0.392 OA
ATOM     20  H5* UNL     1       1.681   0.019  -0.322  0.00  0.00    +0.210 HD
ENDBRANCH  18  19
ENDBRANCH   1  18
TORSDOF 4
