REMARK  Name = 
REMARK  5 active torsions:
REMARK  status: ('A' for Active; 'I' for Inactive)
REMARK    1  A    between atoms: C_2  and  C_3
REMARK    2  A    between atoms: C_3  and  N_4
REMARK    3  A    between atoms: N_4  and  P_5
REMARK    4  A    between atoms: N_11  and  C_12
REMARK    5  A    between atoms: C_12  and  C_13
REMARK                            x       y       z     vdW  Elec       q    Type
REMARK                         _______ _______ _______ _____ _____    ______ ____
ROOT
ATOM      1  P   UNL     1       0.189   0.042  -0.956  0.00  0.00    +0.346 P 
ATOM      2  O   UNL     1       0.184   0.878  -2.216  0.00  0.00    -0.254 OA
ATOM      3  O   UNL     1       0.230  -1.613  -1.361  0.00  0.00    -0.305 OA
ATOM      4  C   UNL     1      -1.103  -2.042  -1.522  0.00  0.00    +0.171 C 
ATOM      5  C   UNL     1      -1.872  -2.082  -0.186  0.00  0.00    +0.044 C 
ATOM      6  C   UNL     1      -1.577  -0.879   0.733  0.00  0.00    +0.097 C 
ATOM      7  N   UNL     1      -1.300   0.339  -0.050  0.00  0.00    -0.218 NA
ENDROOT
BRANCH   1   8
ATOM      8  N   UNL     1       1.598   0.442   0.023  0.00  0.00    -0.231 NA
ATOM      9  H   UNL     1       1.544  -0.160   0.876  0.00  0.00    +0.133 HD
BRANCH   8  10
ATOM     10  C   UNL     1       2.816   0.088  -0.711  0.00  0.00    +0.107 C 
BRANCH  10  12
ATOM     11 CL   UNL     1       4.297  -0.403   1.538  0.00  0.00    -0.124 Cl
ATOM     12  C   UNL     1       4.055   0.554   0.052  0.00  0.00    +0.124 C 
ENDBRANCH  10  12
ENDBRANCH   8  10
ENDBRANCH   1   8
BRANCH   7  13
ATOM     13  C   UNL     1      -1.133   1.522   0.816  0.00  0.00    +0.110 C 
BRANCH  13  14
ATOM     14  C   UNL     1      -2.492   2.128   1.165  0.00  0.00    +0.124 C 
ATOM     15 CL   UNL     1      -2.272   3.642   2.079  0.00  0.00    -0.124 Cl
ENDBRANCH  13  14
ENDBRANCH   7  13
TORSDOF 5
