REMARK  Name = 
REMARK  10 active torsions:
REMARK  status: ('A' for Active; 'I' for Inactive)
REMARK    1  A    between atoms: C_1  and  O_2
REMARK    2  A    between atoms: O_2  and  C_3
REMARK    3  A    between atoms: C_4  and  O_5
REMARK    4  A    between atoms: O_5  and  C_6
REMARK    5  A    between atoms: C_6  and  C_7
REMARK    6  A    between atoms: C_7  and  C_8
REMARK    7  A    between atoms: C_8  and  N_9
REMARK    8  A    between atoms: C_12  and  C_15
REMARK    9  A    between atoms: C_27  and  C_29
REMARK   10  A    between atoms: C_29  and  C_30
REMARK                            x       y       z     vdW  Elec       q    Type
REMARK                         _______ _______ _______ _____ _____    ______ ____
ROOT
ATOM      1  N   UNL     1       0.709   1.167   0.619  0.00  0.00    -0.302 NA
ATOM      2  C   UNL     1       1.103   0.555  -0.667  0.00  0.00    +0.085 C 
ATOM      3  C   UNL     1       2.411  -0.230  -0.510  0.00  0.00    +0.025 C 
ATOM      4  C   UNL     1       3.527   0.684   0.017  0.00  0.00    +0.044 C 
ATOM      5  C   UNL     1       3.073   1.386   1.307  0.00  0.00    +0.025 C 
ATOM      6  C   UNL     1       1.748   2.118   1.074  0.00  0.00    +0.085 C 
ENDROOT
BRANCH   4   7
ATOM      7  C   UNL     1       4.787  -0.110   0.240  0.00  0.00    +0.094 A 
ATOM      8  N   UNL     1       5.063  -0.827   1.358  0.00  0.00    -0.082 NA
ATOM      9  O   UNL     1       6.198  -1.446   1.162  0.00  0.00    -0.354 OA
ATOM     10  C   UNL     1       6.660  -1.175  -0.034  0.00  0.00    +0.170 A 
ATOM     11  C   UNL     1       5.797  -0.333  -0.673  0.00  0.00    +0.045 A 
ATOM     12  C   UNL     1       6.018   0.106  -1.977  0.00  0.00    +0.016 A 
ATOM     13  C   UNL     1       7.187  -0.343  -2.623  0.00  0.00    +0.039 A 
ATOM     14  C   UNL     1       8.088  -1.208  -1.958  0.00  0.00    +0.127 A 
ATOM     15  F   UNL     1       9.208  -1.632  -2.592  0.00  0.00    -0.205 F 
ATOM     16  C   UNL     1       7.824  -1.637  -0.641  0.00  0.00    +0.088 A 
ENDBRANCH   4   7
BRANCH   1  17
ATOM     17  C   UNL     1      -0.603   1.839   0.493  0.00  0.00    +0.087 C 
BRANCH  17  18
ATOM     18  C   UNL     1      -1.339   1.886   1.842  0.00  0.00    +0.056 C 
BRANCH  18  19
ATOM     19  C   UNL     1      -1.480   0.500   2.490  0.00  0.00    +0.230 C 
BRANCH  19  20
ATOM     20  O   UNL     1      -2.039  -0.449   1.580  0.00  0.00    -0.488 OA
BRANCH  20  22
ATOM     21  C   UNL     1      -3.688  -1.303   0.050  0.00  0.00    +0.162 A 
ATOM     22  C   UNL     1      -3.369  -0.468   1.129  0.00  0.00    +0.162 A 
ATOM     23  C   UNL     1      -4.377   0.312   1.723  0.00  0.00    +0.050 A 
ATOM     24  C   UNL     1      -5.686   0.265   1.241  0.00  0.00    +0.015 A 
ATOM     25  C   UNL     1      -6.021  -0.564   0.157  0.00  0.00    +0.021 A 
ATOM     26  C   UNL     1      -5.011  -1.348  -0.431  0.00  0.00    +0.060 A 
BRANCH  25  27
ATOM     27  C   UNL     1      -7.413  -0.623  -0.368  0.00  0.00    +0.160 C 
ATOM     28  C   UNL     1      -8.510   0.230   0.194  0.00  0.00    +0.091 C 
ATOM     29  O   UNL     1      -7.693  -1.411  -1.313  0.00  0.00    -0.292 OA
ENDBRANCH  25  27
BRANCH  21  31
ATOM     30  C   UNL     1      -2.823  -2.939  -1.638  0.00  0.00    +0.277 C 
ATOM     31  O   UNL     1      -2.659  -2.067  -0.524  0.00  0.00    -0.491 OA
ENDBRANCH  21  31
ENDBRANCH  20  22
ENDBRANCH  19  20
ENDBRANCH  18  19
ENDBRANCH  17  18
ENDBRANCH   1  17
TORSDOF 8
