REMARK  Name = 
REMARK  17 active torsions:
REMARK  status: ('A' for Active; 'I' for Inactive)
REMARK    1  A    between atoms: C_1  and  C_2
REMARK    2  A    between atoms: C_3  and  C_4
REMARK    3  A    between atoms: C_4  and  C_5
REMARK    4  A    between atoms: C_5  and  C_6
REMARK    5  A    between atoms: C_5  and  C_7
REMARK    6  A    between atoms: C_7  and  O_8
REMARK    7  A    between atoms: C_7  and  C_9
REMARK    8  A    between atoms: C_10  and  C_11
REMARK    9  A    between atoms: C_12  and  O_13
REMARK   10  A    between atoms: C_20  and  C_21
REMARK   11  A    between atoms: C_21  and  C_22
REMARK   12  A    between atoms: C_22  and  C_23
REMARK   13  A    between atoms: C_23  and  C_24
REMARK   14  A    between atoms: C_24  and  O_26
REMARK   15  A    between atoms: O_26  and  C_27
REMARK   16  A    between atoms: C_27  and  C_28
REMARK   17  A    between atoms: C_28  and  C_30
REMARK                            x       y       z     vdW  Elec       q    Type
REMARK                         _______ _______ _______ _____ _____    ______ ____
ROOT
ATOM      1  C   UNL     1      -2.850  -0.633  -1.798  0.00  0.00    +0.044 C 
ATOM      2  C   UNL     1      -3.576   0.560  -2.513  0.00  0.00    +0.122 C 
ATOM      3  C   UNL     1      -2.675   1.817  -2.335  0.00  0.00    +0.036 C 
ATOM      4  C   UNL     1      -1.752   1.394  -1.213  0.00  0.00    -0.001 C 
ATOM      5  C   UNL     1      -0.377   1.990  -0.971  0.00  0.00    +0.034 C 
ATOM      6  C   UNL     1       0.318   0.816  -0.316  0.00  0.00    -0.073 C 
ATOM      7  C   UNL     1      -0.453  -0.476  -0.498  0.00  0.00    +0.035 C 
ATOM      8  C   UNL     1      -1.466  -0.040  -1.548  0.00  0.00    +0.006 C 
ATOM      9  C   UNL     1       1.458   0.939   0.385  0.00  0.00    -0.028 C 
ENDROOT
BRANCH   1  11
ATOM     10  C   UNL     1      -4.708  -1.757  -0.591  0.00  0.00    +0.000 C 
ATOM     11  C   UNL     1      -3.572  -1.047  -0.533  0.00  0.00    -0.022 C 
BRANCH  10  12
ATOM     12  C   UNL     1      -5.462  -2.162   0.657  0.00  0.00    +0.141 C 
BRANCH  12  13
ATOM     13  C   UNL     1      -6.785  -1.360   0.819  0.00  0.00    +0.030 C 
ATOM     14  C   UNL     1      -7.580  -1.887   2.030  0.00  0.00    +0.011 C 
BRANCH  13  15
ATOM     15  C   UNL     1      -6.501   0.155   0.973  0.00  0.00    +0.095 C 
BRANCH  15  18
ATOM     16  C   UNL     1      -9.996   2.368   1.011  0.00  0.00    +0.106 C 
ATOM     17  C   UNL     1      -8.759   1.590   0.992  0.00  0.00    -0.106 C 
ATOM     18  C   UNL     1      -7.740   0.945   0.980  0.00  0.00    -0.102 C 
ENDBRANCH  15  18
ENDBRANCH  13  15
ENDBRANCH  12  13
BRANCH  12  19
ATOM     19  O   UNL     1      -5.708  -3.546   0.613  0.00  0.00    -0.387 OA
ATOM     20  H   UNL     1      -6.326  -3.719  -0.145  0.00  0.00    +0.210 HD
ENDBRANCH  12  19
ENDBRANCH  10  12
ENDBRANCH   1  11
BRANCH   2  21
ATOM     21  O   UNL     1      -3.803   0.287  -3.873  0.00  0.00    -0.391 OA
ATOM     22  H   UNL     1      -2.930   0.046  -4.280  0.00  0.00    +0.210 HD
ENDBRANCH   2  21
BRANCH   9  23
ATOM     23  C   UNL     1       2.133  -0.245   1.036  0.00  0.00    +0.027 C 
BRANCH  23  24
ATOM     24  C   UNL     1       3.285   0.167   1.966  0.00  0.00    +0.015 C 
BRANCH  24  25
ATOM     25  C   UNL     1       4.513   0.733   1.227  0.00  0.00    +0.121 C 
BRANCH  25  26
ATOM     26  C   UNL     1       5.223  -0.276   0.370  0.00  0.00    +0.307 C 
ATOM     27  O   UNL     1       5.165  -1.506   0.640  0.00  0.00    -0.251 OA
BRANCH  26  28
ATOM     28  O   UNL     1       6.014   0.183  -0.688  0.00  0.00    -0.457 OA
BRANCH  28  29
ATOM     29  C   UNL     1       6.802  -0.672  -1.517  0.00  0.00    +0.311 C 
BRANCH  29  30
ATOM     30  C   UNL     1       7.899  -1.336  -0.728  0.00  0.00    +0.200 C 
ATOM     31  O   UNL     1       7.942  -2.597  -0.720  0.00  0.00    -0.288 OA
BRANCH  30  32
ATOM     32  C   UNL     1       8.924  -0.562   0.026  0.00  0.00    +0.021 A 
ATOM     33  C   UNL     1       9.854  -1.240   0.840  0.00  0.00    +0.011 A 
ATOM     34  C   UNL     1      10.824  -0.529   1.554  0.00  0.00    +0.001 A 
ATOM     35  C   UNL     1      10.881   0.863   1.464  0.00  0.00    +0.000 A 
ATOM     36  C   UNL     1       9.966   1.548   0.662  0.00  0.00    +0.001 A 
ATOM     37  C   UNL     1       8.996   0.844  -0.056  0.00  0.00    +0.011 A 
ENDBRANCH  30  32
ENDBRANCH  29  30
ENDBRANCH  28  29
ENDBRANCH  26  28
ENDBRANCH  25  26
ENDBRANCH  24  25
ENDBRANCH  23  24
ENDBRANCH   9  23
TORSDOF 15
