REMARK  Name = 
REMARK  8 active torsions:
REMARK  status: ('A' for Active; 'I' for Inactive)
REMARK    1  A    between atoms: C_1  and  N_2
REMARK    2  A    between atoms: N_5  and  C_6
REMARK    3  A    between atoms: C_6  and  C_7
REMARK    4  A    between atoms: C_10  and  C_13
REMARK    5  A    between atoms: N_15  and  C_16
REMARK    6  A    between atoms: C_18  and  N_19
REMARK    7  A    between atoms: C_24  and  C_26
REMARK    8  A    between atoms: C_32  and  C_33
REMARK                            x       y       z     vdW  Elec       q    Type
REMARK                         _______ _______ _______ _____ _____    ______ ____
ROOT
ATOM      1  C   UNL     1      -1.299  -1.573   0.627  0.00  0.00    +0.035 A 
ATOM      2  C   UNL     1      -2.595  -1.288   0.179  0.00  0.00    +0.047 A 
ATOM      3  C   UNL     1      -3.652  -2.187   0.406  0.00  0.00    +0.038 A 
ATOM      4  C   UNL     1      -3.393  -3.411   1.062  0.00  0.00    -0.029 A 
ATOM      5  C   UNL     1      -4.490  -4.412   1.302  0.00  0.00    +0.045 C 
ATOM      6  C   UNL     1      -2.085  -3.709   1.474  0.00  0.00    +0.007 A 
ATOM      7  C   UNL     1      -1.048  -2.798   1.263  0.00  0.00    +0.024 A 
ENDROOT
BRANCH   3   8
ATOM      8  N   UNL     1      -4.976  -1.871  -0.060  0.00  0.00    -0.283 N 
ATOM      9  C   UNL     1      -5.601  -0.600   0.159  0.00  0.00    +0.220 A 
ATOM     10  N   UNL     1      -5.018   0.333   0.960  0.00  0.00    -0.223 NA
ATOM     11  C   UNL     1      -5.619   1.526   1.197  0.00  0.00    +0.116 A 
ATOM     12  C   UNL     1      -6.857   1.810   0.622  0.00  0.00    +0.048 A 
ATOM     13  C   UNL     1      -7.456   0.845  -0.205  0.00  0.00    +0.077 A 
ATOM     14  N   UNL     1      -6.810  -0.338  -0.406  0.00  0.00    -0.214 NA
ATOM     15  H   UNL     1      -5.549  -2.629  -0.495  0.00  0.00    +0.155 HD
BRANCH  13  16
ATOM     16  C   UNL     1      -8.780   1.070  -0.844  0.00  0.00    +0.019 A 
ATOM     17  C   UNL     1      -9.583  -0.026  -1.209  0.00  0.00    +0.120 A 
ATOM     18  N   UNL     1     -10.798   0.171  -1.789  0.00  0.00    -0.263 NA
ATOM     19  C   UNL     1     -11.276   1.416  -2.045  0.00  0.00    +0.111 A 
ATOM     20  C   UNL     1     -10.513   2.536  -1.717  0.00  0.00    +0.020 A 
ATOM     21  C   UNL     1      -9.262   2.364  -1.121  0.00  0.00    +0.013 A 
ENDBRANCH  13  16
ENDBRANCH   3   8
BRANCH   1  24
ATOM     22  C   UNL     1       0.848  -0.409   1.288  0.00  0.00    +0.248 C 
ATOM     23  O   UNL     1       0.733  -0.756   2.496  0.00  0.00    -0.270 OA
ATOM     24  N   UNL     1      -0.240  -0.635   0.376  0.00  0.00    -0.281 N 
ATOM     25  H   UNL     1      -0.336   0.004  -0.446  0.00  0.00    +0.155 HD
BRANCH  22  29
ATOM     26  C   UNL     1       4.454   1.564   0.007  0.00  0.00    -0.033 A 
ATOM     27  C   UNL     1       3.631   0.911  -0.926  0.00  0.00    +0.005 A 
ATOM     28  C   UNL     1       2.460   0.270  -0.513  0.00  0.00    +0.013 A 
ATOM     29  C   UNL     1       2.084   0.275   0.841  0.00  0.00    +0.037 A 
ATOM     30  C   UNL     1       2.906   0.931   1.774  0.00  0.00    +0.013 A 
ATOM     31  C   UNL     1       4.073   1.579   1.359  0.00  0.00    +0.005 A 
BRANCH  26  32
ATOM     32  C   UNL     1       5.718   2.268  -0.445  0.00  0.00    +0.119 C 
BRANCH  32  37
ATOM     33  C   UNL     1       9.998   1.011  -0.804  0.00  0.00    +0.105 C 
ATOM     34  N   UNL     1       9.136  -0.155  -0.539  0.00  0.00    -0.303 NA
ATOM     35  C   UNL     1       8.160  -0.394  -1.631  0.00  0.00    +0.099 C 
ATOM     36  C   UNL     1       6.774   0.227  -1.360  0.00  0.00    +0.100 C 
ATOM     37  N   UNL     1       6.914   1.397  -0.481  0.00  0.00    -0.296 NA
ATOM     38  C   UNL     1       7.407   1.020   0.859  0.00  0.00    +0.100 C 
ATOM     39  C   UNL     1       8.491  -0.078   0.787  0.00  0.00    +0.099 C 
ENDBRANCH  32  37
ENDBRANCH  26  32
ENDBRANCH  22  29
ENDBRANCH   1  24
TORSDOF 6
