REMARK  Name = 
REMARK  6 active torsions:
REMARK  status: ('A' for Active; 'I' for Inactive)
REMARK    1  A    between atoms: C_1  and  N_2
REMARK    2  A    between atoms: N_2  and  C_3
REMARK    3  A    between atoms: N_2  and  C_4
REMARK    4  A    between atoms: C_4  and  C_5
REMARK    5  A    between atoms: C_5  and  C_6
REMARK    6  A    between atoms: C_6  and  N_7
REMARK                            x       y       z     vdW  Elec       q    Type
REMARK                         _______ _______ _______ _____ _____    ______ ____
ROOT
ATOM      1  N   UNL     1      -0.554   0.386   0.330  0.00  0.00    -0.300 N 
ATOM      2  C   UNL     1      -1.407   1.537   0.382  0.00  0.00    +0.037 A 
ATOM      3  C   UNL     1      -1.271   2.477   1.414  0.00  0.00    +0.024 A 
ATOM      4  C   UNL     1      -2.096   3.606   1.448  0.00  0.00    +0.002 A 
ATOM      5  C   UNL     1      -3.055   3.800   0.451  0.00  0.00    +0.000 A 
ATOM      6  C   UNL     1      -3.188   2.870  -0.585  0.00  0.00    +0.005 A 
ATOM      7  C   UNL     1      -2.353   1.741  -0.628  0.00  0.00    -0.026 A 
ATOM      8  C   UNL     1      -2.486   0.716  -1.712  0.00  0.00    +0.042 C 
ATOM      9  C   UNL     1      -3.122  -0.556  -1.155  0.00  0.00    +0.042 C 
ATOM     10  C   UNL     1      -2.280  -1.386  -0.193  0.00  0.00    -0.026 A 
ATOM     11  C   UNL     1      -2.751  -2.692   0.046  0.00  0.00    +0.005 A 
ATOM     12  C   UNL     1      -2.095  -3.548   0.928  0.00  0.00    +0.000 A 
ATOM     13  C   UNL     1      -0.961  -3.114   1.604  0.00  0.00    +0.002 A 
ATOM     14  C   UNL     1      -0.478  -1.824   1.400  0.00  0.00    +0.024 A 
ATOM     15  C   UNL     1      -1.114  -0.937   0.506  0.00  0.00    +0.037 A 
ENDROOT
BRANCH   1  16
ATOM     16  C   UNL     1       0.900   0.598   0.224  0.00  0.00    +0.112 C 
BRANCH  16  17
ATOM     17  C   UNL     1       1.495  -0.227  -0.927  0.00  0.00    +0.035 C 
BRANCH  17  18
ATOM     18  C   UNL     1       3.003   0.016  -1.091  0.00  0.00    +0.085 C 
BRANCH  18  20
ATOM     19  C   UNL     1       3.935  -1.733   0.329  0.00  0.00    +0.104 C 
ATOM     20  N   UNL     1       3.748  -0.282   0.153  0.00  0.00    -0.308 NA
ATOM     21  C   UNL     1       5.062   0.381   0.123  0.00  0.00    +0.104 C 
ENDBRANCH  18  20
ENDBRANCH  17  18
ENDBRANCH  16  17
ENDBRANCH   1  16
TORSDOF 4
