REMARK  Name = 
REMARK  9 active torsions:
REMARK  status: ('A' for Active; 'I' for Inactive)
REMARK    1  A    between atoms: C_3  and  S_4
REMARK    2  A    between atoms: S_4  and  C_5
REMARK    3  A    between atoms: C_5  and  C_6
REMARK    4  A    between atoms: C_6  and  N_7
REMARK    5  A    between atoms: C_10  and  C_18
REMARK    6  A    between atoms: C_14  and  C_15
REMARK    7  A    between atoms: C_15  and  C_16
REMARK    8  A    between atoms: C_15  and  O_17
REMARK    9  A    between atoms: C_18  and  O_19
REMARK                            x       y       z     vdW  Elec       q    Type
REMARK                         _______ _______ _______ _____ _____    ______ ____
ROOT
ATOM      1  C   UNL     1      -1.969  -0.014   0.438  0.00  0.00    +0.101 C 
ATOM      2  C   UNL     1      -0.896  -1.129   0.550  0.00  0.00    +0.068 C 
ATOM      3  C   UNL     1       0.051  -0.841  -0.605  0.00  0.00    +0.016 C 
ATOM      4  C   UNL     1      -0.426   0.127  -1.387  0.00  0.00    +0.131 C 
ATOM      5  N   UNL     1      -1.651   0.542  -0.844  0.00  0.00    -0.260 N 
ATOM      6  C   UNL     1      -3.055   0.325  -1.261  0.00  0.00    +0.228 C 
ATOM      7  O   UNL     1      -3.720   0.547  -2.307  0.00  0.00    -0.275 OA
ATOM      8  C   UNL     1      -3.320  -0.364   0.045  0.00  0.00    +0.125 C 
ENDROOT
BRANCH   8   9
ATOM      9  C   UNL     1      -4.455   0.263   0.894  0.00  0.00    +0.125 C 
ATOM     10  C   UNL     1      -4.513   1.802   0.857  0.00  0.00    +0.038 C 
BRANCH   9  11
ATOM     11  O   UNL     1      -5.681  -0.254   0.447  0.00  0.00    -0.391 OA
ATOM     12  H   UNL     1      -6.336  -0.125   1.183  0.00  0.00    +0.210 HD
ENDBRANCH   9  11
ENDBRANCH   8   9
BRANCH   4  13
ATOM     13  C   UNL     1       0.124   0.647  -2.651  0.00  0.00    +0.352 C 
ATOM     14  O   UNL     1       1.214   0.215  -3.111  0.00  0.00    -0.244 OA
BRANCH  13  15
ATOM     15  O   UNL     1      -0.572   1.633  -3.342  0.00  0.00    -0.476 OA
ATOM     16  H   UNL     1      -0.215   2.008  -4.213  0.00  0.00    +0.295 HD
ENDBRANCH  13  15
ENDBRANCH   4  13
BRANCH   3  17
ATOM     17  S   UNL     1       1.558  -1.776  -0.887  0.00  0.00    -0.126 S 
BRANCH  17  18
ATOM     18  C   UNL     1       2.590  -0.629   0.084  0.00  0.00    +0.097 C 
BRANCH  18  19
ATOM     19  C   UNL     1       4.041  -1.092   0.061  0.00  0.00    +0.154 C 
BRANCH  19  20
ATOM     20  N   UNL     1       4.861  -0.170   0.838  0.00  0.00    -0.276 NA
ATOM     21  C   UNL     1       6.138  -0.335   0.980  0.00  0.00    +0.172 C 
ATOM     22  N   UNL     1       6.896   0.595   1.749  0.00  0.00    -0.349 N 
ATOM     23  H   UNL     1       7.925   0.461   1.862  0.00  0.00    +0.143 HD
ATOM     24  H   UNL     1       6.433   1.413   2.204  0.00  0.00    +0.143 HD
ENDBRANCH  19  20
ENDBRANCH  18  19
ENDBRANCH  17  18
ENDBRANCH   3  17
TORSDOF 8
