REMARK  Name = 
REMARK  4 active torsions:
REMARK  status: ('A' for Active; 'I' for Inactive)
REMARK    1  A    between atoms: C_1  and  C_2
REMARK    2  A    between atoms: C_2  and  C_3
REMARK    3  A    between atoms: C_2  and  C_4
REMARK    4  A    between atoms: C_4  and  N_5
REMARK                            x       y       z     vdW  Elec       q    Type
REMARK                         _______ _______ _______ _____ _____    ______ ____
ROOT
ATOM      1  N   UNL     1      -0.772   1.065  -0.621  0.00  0.00    -0.329 N 
ATOM      2  C   UNL     1      -0.891   2.360  -0.232  0.00  0.00    +0.200 A 
ATOM      3  N   UNL     1       0.216   2.856   0.360  0.00  0.00    -0.232 NA
ATOM      4  C   UNL     1       1.066   1.818   0.330  0.00  0.00    +0.129 A 
ATOM      5  C   UNL     1       0.498   0.719  -0.270  0.00  0.00    +0.081 A 
ATOM      6  C   UNL     1       1.253  -0.480  -0.419  0.00  0.00    +0.026 A 
ATOM      7  C   UNL     1       0.810  -1.656  -1.058  0.00  0.00    +0.012 A 
ATOM      8  C   UNL     1       1.636  -2.781  -1.137  0.00  0.00    +0.001 A 
ATOM      9  C   UNL     1       2.918  -2.758  -0.594  0.00  0.00    +0.002 A 
ATOM     10  C   UNL     1       3.391  -1.604   0.028  0.00  0.00    +0.028 A 
ATOM     11  C   UNL     1       2.580  -0.468   0.117  0.00  0.00    +0.075 A 
ATOM     12  N   UNL     1       3.082   0.652   0.715  0.00  0.00    -0.230 NA
ATOM     13  C   UNL     1       2.363   1.799   0.832  0.00  0.00    +0.145 A 
ATOM     14  N   UNL     1       2.938   2.946   1.462  0.00  0.00    -0.341 N 
ATOM     15  H   UNL     1       2.400   3.835   1.562  0.00  0.00    +0.144 HD
ATOM     16  H   UNL     1       3.913   2.905   1.833  0.00  0.00    +0.144 HD
ENDROOT
BRANCH   1  17
ATOM     17  C   UNL     1      -1.887   0.324  -1.233  0.00  0.00    +0.126 C 
BRANCH  17  19
ATOM     18  C   UNL     1      -2.097  -1.451   0.623  0.00  0.00    +0.009 C 
ATOM     19  C   UNL     1      -2.807  -0.363  -0.191  0.00  0.00    +0.003 C 
ATOM     20  C   UNL     1      -3.470   0.655   0.748  0.00  0.00    +0.009 C 
ENDBRANCH  17  19
ENDBRANCH   1  17
TORSDOF 2
