REMARK  Name = 
REMARK  5 active torsions:
REMARK  status: ('A' for Active; 'I' for Inactive)
REMARK    1  A    between atoms: C_1  and  C_2
REMARK    2  A    between atoms: N_10  and  N_11
REMARK    3  A    between atoms: C_12  and  C_14
REMARK    4  A    between atoms: C_16  and  S_21
REMARK    5  A    between atoms: S_21  and  N_22
REMARK                            x       y       z     vdW  Elec       q    Type
REMARK                         _______ _______ _______ _____ _____    ______ ____
ROOT
ATOM      1  N   UNL     1      -0.418   0.355   0.340  0.00  0.00    -0.230 N 
ATOM      2  C   UNL     1       0.260  -0.183   1.485  0.00  0.00    +0.260 C 
ATOM      3  O   UNL     1      -0.401  -0.483   2.516  0.00  0.00    -0.269 OA
ATOM      4  H   UNL     1       0.119   0.962  -0.318  0.00  0.00    +0.173 HD
ENDROOT
BRANCH   1  14
ATOM      5  C   UNL     1      -1.899  -2.270  -0.149  0.00  0.00    +0.030 C 
ATOM      6  C   UNL     1      -2.568  -1.030   0.456  0.00  0.00    +0.096 C 
ATOM      7  C   UNL     1      -3.983  -0.800  -0.152  0.00  0.00    +0.061 C 
ATOM      8  C   UNL     1      -3.850   0.507  -0.856  0.00  0.00    -0.023 A 
ATOM      9  C   UNL     1      -4.816   1.181  -1.605  0.00  0.00    +0.005 A 
ATOM     10  C   UNL     1      -4.479   2.421  -2.173  0.00  0.00    +0.000 A 
ATOM     11  C   UNL     1      -3.194   2.963  -1.978  0.00  0.00    +0.002 A 
ATOM     12  C   UNL     1      -2.240   2.267  -1.217  0.00  0.00    +0.025 A 
ATOM     13  C   UNL     1      -2.600   1.030  -0.672  0.00  0.00    +0.051 A 
ATOM     14  N   UNL     1      -1.802   0.183   0.135  0.00  0.00    -0.247 N 
ENDBRANCH   1  14
BRANCH   2  15
ATOM     15  C   UNL     1       1.732  -0.358   1.485  0.00  0.00    +0.040 A 
ATOM     16  C   UNL     1       2.447  -0.467   0.279  0.00  0.00    +0.043 A 
ATOM     17  C   UNL     1       3.840  -0.642   0.278  0.00  0.00    +0.124 A 
ATOM     18  C   UNL     1       4.529  -0.703   1.508  0.00  0.00    +0.067 A 
ATOM     19 CL   UNL     1       6.276  -0.894   1.597  0.00  0.00    -0.082 Cl
ATOM     20  C   UNL     1       3.817  -0.607   2.708  0.00  0.00    +0.023 A 
ATOM     21  C   UNL     1       2.432  -0.442   2.700  0.00  0.00    +0.014 A 
BRANCH  17  22
ATOM     22  S   UNL     1       4.694  -0.764  -1.268  0.00  0.00    +0.057 S 
ATOM     23  O   UNL     1       3.713  -0.998  -2.382  0.00  0.00    -0.153 OA
ATOM     24  O   UNL     1       5.655  -1.919  -1.233  0.00  0.00    -0.153 OA
BRANCH  22  25
ATOM     25  N   UNL     1       5.554   0.703  -1.580  0.00  0.00    -0.203 NA
ATOM     26  H   UNL     1       4.863   1.483  -1.507  0.00  0.00    +0.144 HD
ATOM     27  H   UNL     1       6.240   0.834  -0.804  0.00  0.00    +0.144 HD
ENDBRANCH  22  25
ENDBRANCH  17  22
ENDBRANCH   2  15
TORSDOF 4
