REMARK  Name = 
REMARK  10 active torsions:
REMARK  status: ('A' for Active; 'I' for Inactive)
REMARK    1  A    between atoms: C_1  and  C_2
REMARK    2  A    between atoms: C_2  and  C_3
REMARK    3  A    between atoms: C_4  and  C_5
REMARK    4  A    between atoms: C_5  and  C_6
REMARK    5  A    between atoms: C_10  and  N_14
REMARK    6  A    between atoms: N_14  and  C_15
REMARK    7  A    between atoms: C_15  and  C_16
REMARK    8  A    between atoms: C_16  and  O_17
REMARK    9  A    between atoms: C_16  and  C_18
REMARK   10  A    between atoms: C_26  and  O_27
REMARK                            x       y       z     vdW  Elec       q    Type
REMARK                         _______ _______ _______ _____ _____    ______ ____
ROOT
ATOM      1  C   UNL     1       3.093   1.053  -0.504  0.00  0.00    +0.159 C 
ENDROOT
BRANCH   1   2
ATOM      2  C   UNL     1       4.104   0.022   0.008  0.00  0.00    -0.009 A 
ATOM      3  C   UNL     1       5.364  -0.146  -0.644  0.00  0.00    +0.008 A 
ATOM      4  C   UNL     1       5.736   0.615  -1.773  0.00  0.00    +0.016 A 
ATOM      5  C   UNL     1       6.975   0.426  -2.378  0.00  0.00    +0.071 A 
ATOM      6  C   UNL     1       7.854  -0.524  -1.867  0.00  0.00    +0.249 A 
ATOM      7  O   UNL     1       8.976  -0.697  -2.412  0.00  0.00    -0.268 OA
ATOM      8  N   UNL     1       7.502  -1.267  -0.783  0.00  0.00    -0.319 N 
ATOM      9  C   UNL     1       6.293  -1.111  -0.162  0.00  0.00    +0.091 A 
ATOM     10  C   UNL     1       5.963  -1.905   0.950  0.00  0.00    +0.141 A 
ATOM     11  C   UNL     1       4.726  -1.748   1.574  0.00  0.00    +0.048 A 
ATOM     12  C   UNL     1       3.811  -0.806   1.112  0.00  0.00    +0.010 A 
ATOM     13  H   UNL     1       8.188  -1.973  -0.430  0.00  0.00    +0.169 HD
BRANCH  10  14
ATOM     14  O   UNL     1       6.865  -2.853   1.434  0.00  0.00    -0.505 OA
ATOM     15  H   UNL     1       6.648  -3.436   2.234  0.00  0.00    +0.292 HD
ENDBRANCH  10  14
ENDBRANCH   1   2
BRANCH   1  16
ATOM     16  O   UNL     1       2.620   0.640  -1.761  0.00  0.00    -0.386 OA
ATOM     17  H   UNL     1       2.328   1.458  -2.243  0.00  0.00    +0.210 HD
ENDBRANCH   1  16
BRANCH   1  18
ATOM     18  C   UNL     1       1.903   1.369   0.430  0.00  0.00    +0.117 C 
BRANCH  18  19
ATOM     19  N   UNL     1       0.911   0.278   0.421  0.00  0.00    -0.310 NA
ATOM     20  H   UNL     1       0.612   0.076   1.405  0.00  0.00    +0.122 HD
BRANCH  19  26
ATOM     21  C   UNL     1      -4.926   0.769   0.659  0.00  0.00    -0.044 A 
ATOM     22  C   UNL     1      -4.870  -0.565   0.149  0.00  0.00    -0.044 A 
ATOM     23  C   UNL     1      -3.636  -1.079  -0.305  0.00  0.00    +0.007 A 
ATOM     24  C   UNL     1      -2.491  -0.289  -0.222  0.00  0.00    -0.042 A 
ATOM     25  C   UNL     1      -1.121  -0.679  -0.628  0.00  0.00    +0.054 C 
ATOM     26  C   UNL     1      -0.281   0.597  -0.388  0.00  0.00    +0.062 C 
ATOM     27  C   UNL     1      -1.211   1.628   0.307  0.00  0.00    +0.054 C 
ATOM     28  C   UNL     1      -2.540   0.977   0.291  0.00  0.00    -0.042 A 
ATOM     29  C   UNL     1      -3.739   1.527   0.741  0.00  0.00    +0.007 A 
BRANCH  21  31
ATOM     30  C   UNL     1      -6.377   1.114   2.667  0.00  0.00    +0.009 C 
ATOM     31  C   UNL     1      -6.203   1.392   1.177  0.00  0.00    +0.032 C 
ENDBRANCH  21  31
BRANCH  22  32
ATOM     32  C   UNL     1      -6.095  -1.441   0.020  0.00  0.00    +0.032 C 
ATOM     33  C   UNL     1      -6.758  -1.250  -1.341  0.00  0.00    +0.009 C 
ENDBRANCH  22  32
ENDBRANCH  19  26
ENDBRANCH  18  19
ENDBRANCH   1  18
TORSDOF 8
