REMARK  Name = 
REMARK  8 active torsions:
REMARK  status: ('A' for Active; 'I' for Inactive)
REMARK    1  A    between atoms: C_1  and  C_2
REMARK    2  A    between atoms: C_2  and  C_3
REMARK    3  A    between atoms: C_2  and  N_4
REMARK    4  A    between atoms: N_4  and  C_5
REMARK    5  A    between atoms: C_5  and  C_6
REMARK    6  A    between atoms: C_6  and  C_7
REMARK    7  A    between atoms: C_7  and  C_8
REMARK    8  A    between atoms: C_8  and  C_9
REMARK                            x       y       z     vdW  Elec       q    Type
REMARK                         _______ _______ _______ _____ _____    ______ ____
ROOT
ATOM      1  C   UNL     1      -1.242   0.858   0.045  0.00  0.00    +0.098 C 
ATOM      2  C   UNL     1      -2.227   0.007   0.858  0.00  0.00    -0.020 A 
ATOM      3  C   UNL     1      -2.129  -0.466   2.179  0.00  0.00    +0.005 A 
ATOM      4  C   UNL     1      -3.166  -1.250   2.709  0.00  0.00    +0.000 A 
ATOM      5  C   UNL     1      -4.290  -1.569   1.929  0.00  0.00    +0.001 A 
ATOM      6  C   UNL     1      -4.383  -1.111   0.610  0.00  0.00    +0.009 A 
ATOM      7  C   UNL     1      -3.343  -0.330   0.102  0.00  0.00    -0.013 A 
ATOM      8  C   UNL     1      -3.196   0.217  -1.222  0.00  0.00    -0.013 A 
ATOM      9  C   UNL     1      -4.046   0.109  -2.325  0.00  0.00    +0.009 A 
ATOM     10  C   UNL     1      -3.655   0.712  -3.528  0.00  0.00    +0.001 A 
ATOM     11  C   UNL     1      -2.431   1.401  -3.611  0.00  0.00    +0.000 A 
ATOM     12  C   UNL     1      -1.592   1.492  -2.490  0.00  0.00    +0.005 A 
ATOM     13  C   UNL     1      -1.994   0.892  -1.285  0.00  0.00    -0.020 A 
ENDROOT
BRANCH   1  14
ATOM     14  C   UNL     1      -1.105   2.280   0.593  0.00  0.00    +0.225 C 
ATOM     15  N   UNL     1      -0.837   2.541   1.973  0.00  0.00    -0.328 N 
ATOM     16  O   UNL     1      -1.195   3.267  -0.188  0.00  0.00    -0.275 OA
ATOM     17  H   UNL     1      -0.585   1.790   2.646  0.00  0.00    +0.145 HD
ATOM     18  H   UNL     1      -0.804   3.527   2.316  0.00  0.00    +0.145 HD
ENDBRANCH   1  14
BRANCH   1  19
ATOM     19  C   UNL     1       0.126   0.151  -0.195  0.00  0.00    +0.027 C 
BRANCH  19  20
ATOM     20  C   UNL     1       1.129   0.200   0.973  0.00  0.00    +0.017 C 
BRANCH  20  21
ATOM     21  C   UNL     1       2.413  -0.584   0.670  0.00  0.00    +0.081 C 
BRANCH  21  22
ATOM     22  N   UNL     1       3.199   0.092  -0.377  0.00  0.00    -0.314 NA
ATOM     23  H   UNL     1       2.791  -0.164  -1.307  0.00  0.00    +0.122 HD
BRANCH  22  25
ATOM     24  C   UNL     1       4.865  -1.793  -0.440  0.00  0.00    +0.023 C 
ATOM     25  C   UNL     1       4.631  -0.274  -0.402  0.00  0.00    +0.047 C 
ATOM     26  C   UNL     1       5.398   0.390   0.748  0.00  0.00    +0.023 C 
ENDBRANCH  22  25
ENDBRANCH  21  22
ENDBRANCH  20  21
ENDBRANCH  19  20
ENDBRANCH   1  19
TORSDOF 6
