REMARK  Name = 
REMARK  17 active torsions:
REMARK  status: ('A' for Active; 'I' for Inactive)
REMARK    1  A    between atoms: C_1  and  C_2
REMARK    2  A    between atoms: C_2  and  C_3
REMARK    3  A    between atoms: C_2  and  C_4
REMARK    4  A    between atoms: C_2  and  N_5
REMARK    5  A    between atoms: C_6  and  C_8
REMARK    6  A    between atoms: N_10  and  C_11
REMARK    7  A    between atoms: C_11  and  C_12
REMARK    8  A    between atoms: N_20  and  C_21
REMARK    9  A    between atoms: C_21  and  C_22
REMARK   10  A    between atoms: C_22  and  O_23
REMARK   11  A    between atoms: C_22  and  C_24
REMARK   12  A    between atoms: C_24  and  C_25
REMARK   13  A    between atoms: C_25  and  C_26
REMARK   14  A    between atoms: C_25  and  C_33
REMARK   15  A    between atoms: C_26  and  C_27
REMARK   16  A    between atoms: N_35  and  C_36
REMARK   17  A    between atoms: C_37  and  O_38
REMARK                            x       y       z     vdW  Elec       q    Type
REMARK                         _______ _______ _______ _____ _____    ______ ____
ROOT
ATOM      1  C   UNL     1      -0.136  -0.541  -0.499  0.00  0.00    +0.129 C 
ENDROOT
BRANCH   1   2
ATOM      2  O   UNL     1       0.393  -0.233  -1.764  0.00  0.00    -0.391 OA
ATOM      3  H   UNL     1      -0.004  -0.878  -2.406  0.00  0.00    +0.210 HD
ENDBRANCH   1   2
BRANCH   1   4
ATOM      4  C   UNL     1      -1.525   0.112  -0.340  0.00  0.00    +0.116 C 
BRANCH   4  10
ATOM      5  C   UNL     1      -3.315  -0.989   0.996  0.00  0.00    +0.157 C 
ATOM      6  C   UNL     1      -4.485  -0.214   0.337  0.00  0.00    +0.113 C 
ATOM      7  N   UNL     1      -4.402   1.256   0.556  0.00  0.00    -0.295 NA
ATOM      8  C   UNL     1      -3.727   1.572   1.833  0.00  0.00    +0.100 C 
ATOM      9  C   UNL     1      -2.268   1.053   1.838  0.00  0.00    +0.100 C 
ATOM     10  N   UNL     1      -2.086  -0.168   1.012  0.00  0.00    -0.287 NA
BRANCH   5  12
ATOM     11  N   UNL     1      -4.011  -3.037  -0.429  0.00  0.00    -0.309 N 
ATOM     12  C   UNL     1      -3.060  -2.375   0.435  0.00  0.00    +0.232 C 
ATOM     13  O   UNL     1      -2.026  -2.988   0.812  0.00  0.00    -0.274 OA
ATOM     14  H   UNL     1      -4.965  -2.626  -0.519  0.00  0.00    +0.149 HD
BRANCH  11  16
ATOM     15  C   UNL     1      -2.591  -3.939  -2.234  0.00  0.00    +0.031 C 
ATOM     16  C   UNL     1      -3.712  -4.250  -1.221  0.00  0.00    +0.026 C 
ATOM     17  C   UNL     1      -3.300  -5.413  -0.289  0.00  0.00    +0.031 C 
ATOM     18  C   UNL     1      -4.981  -4.663  -2.003  0.00  0.00    +0.031 C 
ENDBRANCH  11  16
ENDBRANCH   5  12
BRANCH   7  19
ATOM     19  C   UNL     1      -5.770   1.828   0.524  0.00  0.00    +0.121 C 
BRANCH  19  20
ATOM     20  C   UNL     1      -5.746   3.330   0.410  0.00  0.00    -0.015 A 
ATOM     21  C   UNL     1      -5.412   3.957  -0.807  0.00  0.00    +0.115 A 
ATOM     22  N   UNL     1      -5.444   5.313  -0.911  0.00  0.00    -0.263 NA
ATOM     23  C   UNL     1      -5.780   6.100   0.149  0.00  0.00    +0.111 A 
ATOM     24  C   UNL     1      -6.098   5.519   1.382  0.00  0.00    +0.020 A 
ATOM     25  C   UNL     1      -6.076   4.131   1.512  0.00  0.00    +0.008 A 
ENDBRANCH  19  20
ENDBRANCH   7  19
ENDBRANCH   4  10
ENDBRANCH   1   4
BRANCH   1  26
ATOM     26  C   UNL     1       0.870  -0.142   0.610  0.00  0.00    +0.045 C 
BRANCH  26  27
ATOM     27  C   UNL     1       1.418   1.305   0.501  0.00  0.00    +0.082 C 
BRANCH  27  28
ATOM     28  C   UNL     1       2.427   1.470  -0.617  0.00  0.00    +0.217 C 
ATOM     29  O   UNL     1       2.280   2.427  -1.426  0.00  0.00    -0.275 OA
ATOM     30  N   UNL     1       3.548   0.580  -0.752  0.00  0.00    -0.306 N 
ATOM     31  H   UNL     1       3.741  -0.124  -0.006  0.00  0.00    +0.149 HD
BRANCH  30  32
ATOM     32  C   UNL     1       4.397   0.544  -1.949  0.00  0.00    +0.132 C 
ATOM     33  C   UNL     1       4.297  -0.816  -2.700  0.00  0.00    +0.143 C 
ATOM     34  C   UNL     1       5.721  -1.425  -2.745  0.00  0.00    +0.069 C 
ATOM     35  C   UNL     1       6.549  -0.453  -2.003  0.00  0.00    -0.040 A 
ATOM     36  C   UNL     1       7.920  -0.549  -1.764  0.00  0.00    +0.004 A 
ATOM     37  C   UNL     1       8.556   0.475  -1.052  0.00  0.00    +0.000 A 
ATOM     38  C   UNL     1       7.821   1.587  -0.602  0.00  0.00    +0.000 A 
ATOM     39  C   UNL     1       6.442   1.675  -0.863  0.00  0.00    +0.006 A 
ATOM     40  C   UNL     1       5.827   0.629  -1.561  0.00  0.00    -0.022 A 
BRANCH  33  41
ATOM     41  O   UNL     1       3.422  -1.698  -2.045  0.00  0.00    -0.389 OA
ATOM     42  H   UNL     1       3.183  -2.398  -2.703  0.00  0.00    +0.210 HD
ENDBRANCH  33  41
ENDBRANCH  30  32
ENDBRANCH  27  28
BRANCH  27  43
ATOM     43  C   UNL     1       1.967   1.839   1.848  0.00  0.00    +0.048 C 
BRANCH  43  44
ATOM     44  C   UNL     1       3.186   1.100   2.362  0.00  0.00    -0.047 A 
ATOM     45  C   UNL     1       4.476   1.609   2.136  0.00  0.00    +0.003 A 
ATOM     46  C   UNL     1       5.603   0.910   2.580  0.00  0.00    +0.000 A 
ATOM     47  C   UNL     1       5.456  -0.300   3.259  0.00  0.00    +0.000 A 
ATOM     48  C   UNL     1       4.175  -0.817   3.491  0.00  0.00    +0.000 A 
ATOM     49  C   UNL     1       3.047  -0.123   3.045  0.00  0.00    +0.003 A 
ENDBRANCH  43  44
ENDBRANCH  27  43
ENDBRANCH  26  27
ENDBRANCH   1  26
TORSDOF 14
