REMARK  Name = 
REMARK  7 active torsions:
REMARK  status: ('A' for Active; 'I' for Inactive)
REMARK    1  A    between atoms: C_1  and  O_2
REMARK    2  A    between atoms: O_2  and  C_3
REMARK    3  A    between atoms: C_10  and  C_12
REMARK    4  A    between atoms: C_19  and  C_20
REMARK    5  A    between atoms: C_21  and  C_22
REMARK    6  A    between atoms: C_22  and  C_23
REMARK    7  A    between atoms: C_23  and  O_24
REMARK                            x       y       z     vdW  Elec       q    Type
REMARK                         _______ _______ _______ _____ _____    ______ ____
ROOT
ATOM      1  C   UNL     1      -3.500  -1.089  -0.141  0.00  0.00    +0.121 A 
ATOM      2  C   UNL     1      -2.921   0.203  -0.123  0.00  0.00    +0.056 A 
ATOM      3  C   UNL     1      -1.569   0.325  -0.448  0.00  0.00    +0.008 A 
ATOM      4  C   UNL     1      -0.801  -0.766  -0.769  0.00  0.00    +0.057 A 
ATOM      5  C   UNL     1      -1.340  -2.054  -0.785  0.00  0.00    +0.030 A 
ATOM      6  C   UNL     1      -2.702  -2.206  -0.474  0.00  0.00    +0.048 A 
ATOM      7  N   UNL     1       0.480  -0.400  -0.985  0.00  0.00    -0.280 N 
ATOM      8  C   UNL     1       1.572  -1.277  -1.304  0.00  0.00    +0.263 C 
ATOM      9  O   UNL     1       1.486  -2.019  -2.320  0.00  0.00    -0.267 OA
ATOM     10  C   UNL     1       0.522   0.950  -0.823  0.00  0.00    +0.028 A 
ATOM     11  C   UNL     1       1.765   1.786  -0.942  0.00  0.00    +0.064 C 
ATOM     12  C   UNL     1      -0.744   1.435  -0.483  0.00  0.00    -0.008 A 
ENDROOT
BRANCH   8  13
ATOM     13  C   UNL     1       2.781  -1.338  -0.449  0.00  0.00    +0.040 A 
ATOM     14  C   UNL     1       3.979  -1.880  -0.949  0.00  0.00    +0.015 A 
ATOM     15  C   UNL     1       5.120  -1.939  -0.143  0.00  0.00    +0.021 A 
ATOM     16  C   UNL     1       5.076  -1.465   1.172  0.00  0.00    +0.041 A 
ATOM     17 CL   UNL     1       6.508  -1.541   2.181  0.00  0.00    -0.084 Cl
ATOM     18  C   UNL     1       3.887  -0.935   1.682  0.00  0.00    +0.021 A 
ATOM     19  C   UNL     1       2.744  -0.874   0.879  0.00  0.00    +0.015 A 
ENDBRANCH   8  13
BRANCH   1  21
ATOM     20  C   UNL     1      -5.768  -0.278   0.523  0.00  0.00    +0.277 C 
ATOM     21  O   UNL     1      -4.851  -1.307   0.167  0.00  0.00    -0.495 OA
ENDBRANCH   1  21
BRANCH  12  22
ATOM     22  C   UNL     1      -1.110   2.838  -0.094  0.00  0.00    +0.158 C 
BRANCH  22  23
ATOM     23  C   UNL     1      -0.924   3.024   1.376  0.00  0.00    +0.309 C 
ATOM     24  O   UNL     1       0.173   3.453   1.825  0.00  0.00    -0.251 OA
BRANCH  23  25
ATOM     25  O   UNL     1      -1.948   2.679   2.253  0.00  0.00    -0.480 OA
ATOM     26  H   UNL     1      -1.831   2.781   3.254  0.00  0.00    +0.295 HD
ENDBRANCH  23  25
ENDBRANCH  22  23
ENDBRANCH  12  22
TORSDOF 5
