REMARK  Name = 
REMARK  13 active torsions:
REMARK  status: ('A' for Active; 'I' for Inactive)
REMARK    1  A    between atoms: O_1  and  C_2
REMARK    2  A    between atoms: C_2  and  C_3
REMARK    3  A    between atoms: C_10  and  C_11
REMARK    4  A    between atoms: C_12  and  O_13
REMARK    5  A    between atoms: O_13  and  C_14
REMARK    6  A    between atoms: C_14  and  C_16
REMARK    7  A    between atoms: C_16  and  C_17
REMARK    8  A    between atoms: C_18  and  C_19
REMARK    9  A    between atoms: C_20  and  O_21
REMARK   10  A    between atoms: C_22  and  O_23
REMARK   11  A    between atoms: C_24  and  C_25
REMARK   12  A    between atoms: C_28  and  C_29
REMARK   13  A    between atoms: C_28  and  C_30
REMARK                            x       y       z     vdW  Elec       q    Type
REMARK                         _______ _______ _______ _____ _____    ______ ____
ROOT
ATOM      1  C   UNL     1       0.775  -2.754  -1.409  0.00  0.00    -0.017 C 
ATOM      2  C   UNL     1       2.037  -2.237  -1.387  0.00  0.00    -0.012 C 
ATOM      3  C   UNL     1       2.279  -0.830  -0.994  0.00  0.00    +0.083 C 
ATOM      4  C   UNL     1       1.376   0.037  -1.792  0.00  0.00    +0.153 C 
ATOM      5  O   UNL     1       1.509   0.202  -2.998  0.00  0.00    -0.296 OA
ATOM      6  C   UNL     1       0.296   0.637  -0.993  0.00  0.00    +0.086 C 
ATOM      7  C   UNL     1      -0.586   1.519  -1.821  0.00  0.00    -0.007 C 
ATOM      8  C   UNL     1      -1.867   1.245  -1.644  0.00  0.00    -0.033 C 
ATOM      9  C   UNL     1      -2.968   2.054  -2.260  0.00  0.00    +0.042 C 
ATOM     10  C   UNL     1      -2.101   0.044  -0.790  0.00  0.00    +0.238 C 
ATOM     11  C   UNL     1      -0.671  -0.556  -0.539  0.00  0.00    +0.152 C 
ATOM     12  C   UNL     1      -0.545  -1.910  -1.405  0.00  0.00    +0.179 C 
ATOM     13  C   UNL     1       1.004   1.467   0.182  0.00  0.00    +0.006 C 
ATOM     14  C   UNL     1       0.107   2.584   0.747  0.00  0.00    +0.009 C 
ATOM     15  C   UNL     1       2.422   2.092  -0.160  0.00  0.00    +0.009 C 
ATOM     16  C   UNL     1       3.661   1.285  -0.743  0.00  0.00    -0.000 C 
ATOM     17  C   UNL     1       4.440   0.309   0.156  0.00  0.00    -0.028 C 
ATOM     18  C   UNL     1       5.964   0.318  -0.028  0.00  0.00    +0.011 C 
ATOM     19  C   UNL     1       3.942  -0.087   1.558  0.00  0.00    +0.011 C 
ATOM     20  C   UNL     1       3.679  -0.238  -1.076  0.00  0.00    +0.013 C 
ENDROOT
BRANCH  11  21
ATOM     21  O   UNL     1      -0.481  -0.849   0.828  0.00  0.00    -0.380 OA
ATOM     22  H   UNL     1      -1.074  -1.603   1.075  0.00  0.00    +0.211 HD
ENDBRANCH  11  21
BRANCH  12  23
ATOM     23  O   UNL     1      -1.602  -2.764  -1.026  0.00  0.00    -0.384 OA
ATOM     24  H   UNL     1      -2.161  -2.941  -1.827  0.00  0.00    +0.210 HD
ENDBRANCH  12  23
BRANCH   1  25
ATOM     25  C   UNL     1       0.683  -4.242  -1.701  0.00  0.00    +0.189 C 
BRANCH  25  26
ATOM     26  O   UNL     1       1.067  -4.979  -0.573  0.00  0.00    -0.391 OA
ATOM     27  H   UNL     1       0.320  -4.907   0.077  0.00  0.00    +0.210 HD
ENDBRANCH  25  26
ENDBRANCH   1  25
BRANCH  10  28
ATOM     28  O   UNL     1      -2.772   0.428   0.416  0.00  0.00    -0.451 OA
BRANCH  28  29
ATOM     29  C   UNL     1      -3.646  -0.429   1.103  0.00  0.00    +0.335 C 
ATOM     30  O   UNL     1      -3.738  -1.637   0.750  0.00  0.00    -0.245 OA
BRANCH  29  31
ATOM     31  C   UNL     1      -4.513   0.061   2.210  0.00  0.00    +0.029 C 
ATOM     32  C   UNL     1      -5.690  -0.788   2.617  0.00  0.00    +0.051 C 
ATOM     33  C   UNL     1      -4.263   1.178   2.922  0.00  0.00    -0.020 C 
ATOM     34  C   UNL     1      -3.089   2.077   2.716  0.00  0.00    +0.036 C 
ENDBRANCH  29  31
ENDBRANCH  28  29
ENDBRANCH  10  28
TORSDOF 7
