REMARK  Name = 
REMARK  265 active torsions:
REMARK  status: ('A' for Active; 'I' for Inactive)
REMARK    1  A    between atoms: O_1  and  C_2
REMARK    2  A    between atoms: C_2  and  C_3
REMARK    3  A    between atoms: C_5  and  C_6
REMARK    4  A    between atoms: C_5  and  O_8
REMARK    5  A    between atoms: C_6  and  O_7
REMARK    6  A    between atoms: O_8  and  C_9
REMARK    7  A    between atoms: C_9  and  C_10
REMARK    8  A    between atoms: C_10  and  O_11
REMARK    9  A    between atoms: O_11  and  C_12
REMARK   10  A    between atoms: C_12  and  C_13
REMARK   11  A    between atoms: C_13  and  O_14
REMARK   12  A    between atoms: O_14  and  C_15
REMARK   13  A    between atoms: C_15  and  C_16
REMARK   14  A    between atoms: C_16  and  O_17
REMARK   15  A    between atoms: O_17  and  C_18
REMARK   16  A    between atoms: C_18  and  C_19
REMARK   17  A    between atoms: C_19  and  O_20
REMARK   18  A    between atoms: O_20  and  C_21
REMARK   19  A    between atoms: C_21  and  C_22
REMARK   20  A    between atoms: C_22  and  O_23
REMARK   21  A    between atoms: O_23  and  C_24
REMARK   22  A    between atoms: C_24  and  C_25
REMARK   23  A    between atoms: C_25  and  O_26
REMARK   24  A    between atoms: O_26  and  C_27
REMARK   25  A    between atoms: C_27  and  C_28
REMARK   26  A    between atoms: C_28  and  O_29
REMARK   27  A    between atoms: O_29  and  C_30
REMARK   28  A    between atoms: C_30  and  C_31
REMARK   29  A    between atoms: C_31  and  O_32
REMARK   30  A    between atoms: O_32  and  C_33
REMARK   31  A    between atoms: C_33  and  C_34
REMARK   32  A    between atoms: C_34  and  O_35
REMARK   33  A    between atoms: O_35  and  C_36
REMARK   34  A    between atoms: C_36  and  C_37
REMARK   35  A    between atoms: C_37  and  O_38
REMARK   36  A    between atoms: O_38  and  C_39
REMARK   37  A    between atoms: C_39  and  C_40
REMARK   38  A    between atoms: C_40  and  O_41
REMARK   39  A    between atoms: O_41  and  C_42
REMARK   40  A    between atoms: C_42  and  C_43
REMARK   41  A    between atoms: C_43  and  O_44
REMARK   42  A    between atoms: O_44  and  C_45
REMARK   43  A    between atoms: C_45  and  C_46
REMARK   44  A    between atoms: C_46  and  O_47
REMARK   45  A    between atoms: O_47  and  C_48
REMARK   46  A    between atoms: C_48  and  C_49
REMARK   47  A    between atoms: C_49  and  O_50
REMARK   48  A    between atoms: O_50  and  C_51
REMARK   49  A    between atoms: C_51  and  C_52
REMARK   50  A    between atoms: C_52  and  O_53
REMARK   51  A    between atoms: O_53  and  C_54
REMARK   52  A    between atoms: C_54  and  C_55
REMARK   53  A    between atoms: C_55  and  O_56
REMARK   54  A    between atoms: O_56  and  C_57
REMARK   55  A    between atoms: C_57  and  C_58
REMARK   56  A    between atoms: C_58  and  O_59
REMARK   57  A    between atoms: O_59  and  C_60
REMARK   58  A    between atoms: C_60  and  C_61
REMARK   59  A    between atoms: C_61  and  O_62
REMARK   60  A    between atoms: O_62  and  C_63
REMARK   61  A    between atoms: C_63  and  C_64
REMARK   62  A    between atoms: C_64  and  O_65
REMARK   63  A    between atoms: O_65  and  C_66
REMARK   64  A    between atoms: C_66  and  C_67
REMARK   65  A    between atoms: C_67  and  O_68
REMARK   66  A    between atoms: O_68  and  C_69
REMARK   67  A    between atoms: C_69  and  C_70
REMARK   68  A    between atoms: C_70  and  O_71
REMARK   69  A    between atoms: O_71  and  C_72
REMARK   70  A    between atoms: C_72  and  C_73
REMARK   71  A    between atoms: C_73  and  O_74
REMARK   72  A    between atoms: O_74  and  C_75
REMARK   73  A    between atoms: C_75  and  C_76
REMARK   74  A    between atoms: C_76  and  O_77
REMARK   75  A    between atoms: O_77  and  C_78
REMARK   76  A    between atoms: C_78  and  C_79
REMARK   77  A    between atoms: C_79  and  O_80
REMARK   78  A    between atoms: O_80  and  C_81
REMARK   79  A    between atoms: C_81  and  C_82
REMARK   80  A    between atoms: C_82  and  O_83
REMARK   81  A    between atoms: O_83  and  C_84
REMARK   82  A    between atoms: C_84  and  C_85
REMARK   83  A    between atoms: C_85  and  O_86
REMARK   84  A    between atoms: O_86  and  C_87
REMARK   85  A    between atoms: C_87  and  C_88
REMARK   86  A    between atoms: C_88  and  O_89
REMARK   87  A    between atoms: O_89  and  C_90
REMARK   88  A    between atoms: C_90  and  C_91
REMARK   89  A    between atoms: C_91  and  O_92
REMARK   90  A    between atoms: O_92  and  C_93
REMARK   91  A    between atoms: C_93  and  C_94
REMARK   92  A    between atoms: C_94  and  O_95
REMARK   93  A    between atoms: O_95  and  C_96
REMARK   94  A    between atoms: C_96  and  C_97
REMARK   95  A    between atoms: C_97  and  O_98
REMARK   96  A    between atoms: O_98  and  C_99
REMARK   97  A    between atoms: C_99  and  C_100
REMARK   98  A    between atoms: C_100  and  O_101
REMARK   99  A    between atoms: O_101  and  C_102
REMARK  100  A    between atoms: C_102  and  C_103
REMARK  101  A    between atoms: C_103  and  O_104
REMARK  102  A    between atoms: O_104  and  C_105
REMARK  103  A    between atoms: C_105  and  C_106
REMARK  104  A    between atoms: C_106  and  O_107
REMARK  105  A    between atoms: O_107  and  C_108
REMARK  106  A    between atoms: C_108  and  C_109
REMARK  107  A    between atoms: C_109  and  O_110
REMARK  108  A    between atoms: O_110  and  C_111
REMARK  109  A    between atoms: C_111  and  C_112
REMARK  110  A    between atoms: C_112  and  O_113
REMARK  111  A    between atoms: O_113  and  C_114
REMARK  112  A    between atoms: C_114  and  C_115
REMARK  113  A    between atoms: C_115  and  O_116
REMARK  114  A    between atoms: O_116  and  C_117
REMARK  115  A    between atoms: C_119  and  C_120
REMARK  116  A    between atoms: C_120  and  O_121
REMARK  117  A    between atoms: C_122  and  O_123
REMARK  118  A    between atoms: C_124  and  O_125
REMARK  119  A    between atoms: C_126  and  O_127
REMARK  120  A    between atoms: C_129  and  C_130
REMARK  121  A    between atoms: C_130  and  O_131
REMARK  122  A    between atoms: C_132  and  O_133
REMARK  123  A    between atoms: C_134  and  O_135
REMARK  124  A    between atoms: C_137  and  C_138
REMARK  125  A    between atoms: C_138  and  O_139
REMARK  126  A    between atoms: C_140  and  O_141
REMARK  127  A    between atoms: C_142  and  O_143
REMARK  128  A    between atoms: C_145  and  C_146
REMARK  129  A    between atoms: C_146  and  O_147
REMARK  130  A    between atoms: C_148  and  O_149
REMARK  131  A    between atoms: C_150  and  O_151
REMARK  132  A    between atoms: C_153  and  C_154
REMARK  133  A    between atoms: C_154  and  O_155
REMARK  134  A    between atoms: C_156  and  O_157
REMARK  135  A    between atoms: C_158  and  O_159
REMARK  136  A    between atoms: C_161  and  C_162
REMARK  137  A    between atoms: C_162  and  O_163
REMARK  138  A    between atoms: C_164  and  O_165
REMARK  139  A    between atoms: C_166  and  O_167
REMARK  140  A    between atoms: C_169  and  C_170
REMARK  141  A    between atoms: C_170  and  O_171
REMARK  142  A    between atoms: C_172  and  O_173
REMARK  143  A    between atoms: C_174  and  O_175
REMARK  144  A    between atoms: C_177  and  C_178
REMARK  145  A    between atoms: C_178  and  O_179
REMARK  146  A    between atoms: C_180  and  O_181
REMARK  147  A    between atoms: C_182  and  O_183
REMARK  148  A    between atoms: C_185  and  C_186
REMARK  149  A    between atoms: C_186  and  O_187
REMARK  150  A    between atoms: C_188  and  O_189
REMARK  151  A    between atoms: C_190  and  O_191
REMARK  152  A    between atoms: C_193  and  C_194
REMARK  153  A    between atoms: C_194  and  O_195
REMARK  154  A    between atoms: C_196  and  O_197
REMARK  155  A    between atoms: C_198  and  O_199
REMARK  156  A    between atoms: C_201  and  C_202
REMARK  157  A    between atoms: C_202  and  O_203
REMARK  158  A    between atoms: C_204  and  O_205
REMARK  159  A    between atoms: C_206  and  O_207
REMARK  160  A    between atoms: C_209  and  C_210
REMARK  161  A    between atoms: C_210  and  O_211
REMARK  162  A    between atoms: C_212  and  O_213
REMARK  163  A    between atoms: C_214  and  O_215
REMARK  164  A    between atoms: C_217  and  C_218
REMARK  165  A    between atoms: C_218  and  O_219
REMARK  166  A    between atoms: C_220  and  O_221
REMARK  167  A    between atoms: C_222  and  O_223
REMARK  168  A    between atoms: C_225  and  C_226
REMARK  169  A    between atoms: C_226  and  O_227
REMARK  170  A    between atoms: C_228  and  O_229
REMARK  171  A    between atoms: C_230  and  O_231
REMARK  172  A    between atoms: C_233  and  C_234
REMARK  173  A    between atoms: C_234  and  O_235
REMARK  174  A    between atoms: C_236  and  O_237
REMARK  175  A    between atoms: C_238  and  O_239
REMARK  176  A    between atoms: C_241  and  C_242
REMARK  177  A    between atoms: C_242  and  O_243
REMARK  178  A    between atoms: C_244  and  O_245
REMARK  179  A    between atoms: C_246  and  O_247
REMARK  180  A    between atoms: C_249  and  C_250
REMARK  181  A    between atoms: C_250  and  O_251
REMARK  182  A    between atoms: C_252  and  O_253
REMARK  183  A    between atoms: C_254  and  O_255
REMARK  184  A    between atoms: C_257  and  C_258
REMARK  185  A    between atoms: C_258  and  O_259
REMARK  186  A    between atoms: C_260  and  O_261
REMARK  187  A    between atoms: C_262  and  O_263
REMARK  188  A    between atoms: C_265  and  C_266
REMARK  189  A    between atoms: C_266  and  O_267
REMARK  190  A    between atoms: C_268  and  O_269
REMARK  191  A    between atoms: C_270  and  O_271
REMARK  192  A    between atoms: C_273  and  C_274
REMARK  193  A    between atoms: C_274  and  O_275
REMARK  194  A    between atoms: C_276  and  O_277
REMARK  195  A    between atoms: C_278  and  O_279
REMARK  196  A    between atoms: C_281  and  C_282
REMARK  197  A    between atoms: C_282  and  O_283
REMARK  198  A    between atoms: C_284  and  O_285
REMARK  199  A    between atoms: C_286  and  O_287
REMARK  200  A    between atoms: C_289  and  C_290
REMARK  201  A    between atoms: C_290  and  O_291
REMARK  202  A    between atoms: C_292  and  O_293
REMARK  203  A    between atoms: C_294  and  O_295
REMARK  204  A    between atoms: C_297  and  C_298
REMARK  205  A    between atoms: C_298  and  O_299
REMARK  206  A    between atoms: C_300  and  O_301
REMARK  207  A    between atoms: C_302  and  O_303
REMARK  208  A    between atoms: C_305  and  C_306
REMARK  209  A    between atoms: C_306  and  O_307
REMARK  210  A    between atoms: C_308  and  O_309
REMARK  211  A    between atoms: C_310  and  O_311
REMARK  212  A    between atoms: C_313  and  C_314
REMARK  213  A    between atoms: C_314  and  O_315
REMARK  214  A    between atoms: C_316  and  O_317
REMARK  215  A    between atoms: C_318  and  O_319
REMARK  216  A    between atoms: C_321  and  C_322
REMARK  217  A    between atoms: C_322  and  O_323
REMARK  218  A    between atoms: C_324  and  O_325
REMARK  219  A    between atoms: C_326  and  O_327
REMARK  220  A    between atoms: C_329  and  C_330
REMARK  221  A    between atoms: C_330  and  O_331
REMARK  222  A    between atoms: C_332  and  O_333
REMARK  223  A    between atoms: C_334  and  O_335
REMARK  224  A    between atoms: C_337  and  C_338
REMARK  225  A    between atoms: C_338  and  O_339
REMARK  226  A    between atoms: C_340  and  O_341
REMARK  227  A    between atoms: C_342  and  O_343
REMARK  228  A    between atoms: C_345  and  C_346
REMARK  229  A    between atoms: C_346  and  O_347
REMARK  230  A    between atoms: C_348  and  O_349
REMARK  231  A    between atoms: C_350  and  O_351
REMARK  232  A    between atoms: C_353  and  C_354
REMARK  233  A    between atoms: C_354  and  O_355
REMARK  234  A    between atoms: C_356  and  O_357
REMARK  235  A    between atoms: C_358  and  O_359
REMARK  236  A    between atoms: C_361  and  C_362
REMARK  237  A    between atoms: C_362  and  O_363
REMARK  238  A    between atoms: C_364  and  O_365
REMARK  239  A    between atoms: C_366  and  O_367
REMARK  240  A    between atoms: C_369  and  C_370
REMARK  241  A    between atoms: C_370  and  O_371
REMARK  242  A    between atoms: C_372  and  O_373
REMARK  243  A    between atoms: C_374  and  O_375
REMARK  244  A    between atoms: C_377  and  C_378
REMARK  245  A    between atoms: C_378  and  O_379
REMARK  246  A    between atoms: C_380  and  O_381
REMARK  247  A    between atoms: C_382  and  O_383
REMARK  248  A    between atoms: C_385  and  C_386
REMARK  249  A    between atoms: C_386  and  O_387
REMARK  250  A    between atoms: C_388  and  O_389
REMARK  251  A    between atoms: C_390  and  O_391
REMARK  252  A    between atoms: C_393  and  C_394
REMARK  253  A    between atoms: C_394  and  O_395
REMARK  254  A    between atoms: C_396  and  O_397
REMARK  255  A    between atoms: C_398  and  O_399
REMARK  256  A    between atoms: C_401  and  C_402
REMARK  257  A    between atoms: C_402  and  O_403
REMARK  258  A    between atoms: C_404  and  O_405
REMARK  259  A    between atoms: C_406  and  O_407
REMARK  260  A    between atoms: C_409  and  C_410
REMARK  261  A    between atoms: C_410  and  O_411
REMARK  262  A    between atoms: C_412  and  O_413
REMARK  263  A    between atoms: C_414  and  O_415
REMARK  264  A    between atoms: C_416  and  O_417
REMARK  265  A    between atoms: C_418  and  O_419
REMARK                            x       y       z     vdW  Elec       q    Type
REMARK                         _______ _______ _______ _____ _____    ______ ____
ROOT
ATOM      1  O   UNL     1     -36.891  30.582  40.343  0.00  0.00    -0.339 OA
ENDROOT
BRANCH   1   2
ATOM      2  C   UNL     1     -36.633  31.834  40.701  0.00  0.00    +0.223 C 
ATOM      3  O   UNL     1     -36.894  34.047  40.065  0.00  0.00    -0.336 OA
ATOM      4  C   UNL     1     -35.254  34.780  41.198  0.00  0.00    +0.178 C 
ATOM      5  C   UNL     1     -34.050  32.787  42.044  0.00  0.00    +0.179 C 
ATOM      6  C   UNL     1     -35.300  31.204  42.568  0.00  0.00    +0.207 C 
BRANCH   5   7
ATOM      7  O   UNL     1     -33.034  32.932  43.744  0.00  0.00    -0.386 OA
ATOM      8  H   UNL     1     -33.267  33.645  44.089  0.00  0.00    +0.210 HD
ENDBRANCH   5   7
BRANCH   6   9
ATOM      9  O   UNL     1     -34.985  29.998  42.942  0.00  0.00    -0.384 OA
ATOM     10  H   UNL     1     -34.342  29.883  42.266  0.00  0.00    +0.210 HD
ENDBRANCH   6   9
BRANCH   2  11
ATOM     11  C   UNL     1     -38.840  31.844  41.631  0.00  0.00    +0.231 C 
BRANCH  11  12
ATOM     12  O   UNL     1     -39.914  32.957  41.577  0.00  0.00    -0.339 OA
BRANCH  12  13
ATOM     13  C   UNL     1     -38.841  34.630  42.353  0.00  0.00    +0.223 C 
ATOM     14  O   UNL     1     -38.616  33.473  43.672  0.00  0.00    -0.336 OA
ATOM     15  C   UNL     1     -38.514  33.181  45.150  0.00  0.00    +0.178 C 
ATOM     16  C   UNL     1     -39.684  33.672  44.383  0.00  0.00    +0.179 C 
ATOM     17  C   UNL     1     -39.647  34.601  43.297  0.00  0.00    +0.207 C 
BRANCH  16  18
ATOM     18  O   UNL     1     -40.166  34.241  45.429  0.00  0.00    -0.386 OA
ATOM     19  H   UNL     1     -39.444  34.903  45.610  0.00  0.00    +0.210 HD
ENDBRANCH  16  18
BRANCH  17  20
ATOM     20  O   UNL     1     -40.776  34.559  42.641  0.00  0.00    -0.384 OA
ATOM     21  H   UNL     1     -40.643  33.990  41.840  0.00  0.00    +0.210 HD
ENDBRANCH  17  20
BRANCH  13  22
ATOM     22  C   UNL     1     -37.369  35.771  41.638  0.00  0.00    +0.231 C 
BRANCH  22  23
ATOM     23  O   UNL     1     -37.258  36.917  42.085  0.00  0.00    -0.339 OA
BRANCH  23  24
ATOM     24  C   UNL     1     -38.534  36.856  41.788  0.00  0.00    +0.223 C 
ATOM     25  O   UNL     1     -38.952  38.123  41.571  0.00  0.00    -0.336 OA
ATOM     26  C   UNL     1     -39.785  38.524  42.617  0.00  0.00    +0.178 C 
ATOM     27  C   UNL     1     -39.509  37.790  43.834  0.00  0.00    +0.179 C 
ATOM     28  C   UNL     1     -39.528  36.536  43.456  0.00  0.00    +0.207 C 
BRANCH  27  29
ATOM     29  O   UNL     1     -40.412  37.663  44.864  0.00  0.00    -0.386 OA
ATOM     30  H   UNL     1     -41.267  37.317  44.564  0.00  0.00    +0.210 HD
ENDBRANCH  27  29
BRANCH  28  31
ATOM     31  O   UNL     1     -38.853  36.008  44.517  0.00  0.00    -0.384 OA
ATOM     32  H   UNL     1     -37.853  35.831  44.164  0.00  0.00    +0.210 HD
ENDBRANCH  28  31
BRANCH  24  33
ATOM     33  C   UNL     1     -39.188  35.933  40.322  0.00  0.00    +0.231 C 
BRANCH  33  34
ATOM     34  O   UNL     1     -39.004  36.733  38.490  0.00  0.00    -0.339 OA
BRANCH  34  35
ATOM     35  C   UNL     1     -39.585  35.756  37.844  0.00  0.00    +0.223 C 
ATOM     36  O   UNL     1     -39.224  36.664  36.881  0.00  0.00    -0.336 OA
ATOM     37  C   UNL     1     -40.458  37.128  36.447  0.00  0.00    +0.178 C 
ATOM     38  C   UNL     1     -41.515  36.744  37.483  0.00  0.00    +0.179 C 
ATOM     39  C   UNL     1     -40.979  35.540  38.050  0.00  0.00    +0.207 C 
BRANCH  38  40
ATOM     40  O   UNL     1     -42.806  36.531  37.033  0.00  0.00    -0.386 OA
ATOM     41  H   UNL     1     -42.804  35.826  36.370  0.00  0.00    +0.210 HD
ENDBRANCH  38  40
BRANCH  39  42
ATOM     42  O   UNL     1     -41.496  35.051  39.213  0.00  0.00    -0.384 OA
ATOM     43  H   UNL     1     -41.385  35.878  39.695  0.00  0.00    +0.210 HD
ENDBRANCH  39  42
BRANCH  35  44
ATOM     44  C   UNL     1     -38.725  34.415  38.088  0.00  0.00    +0.231 C 
BRANCH  44  45
ATOM     45  O   UNL     1     -39.420  33.553  38.818  0.00  0.00    -0.339 OA
BRANCH  45  46
ATOM     46  C   UNL     1     -39.014  34.322  39.659  0.00  0.00    +0.223 C 
ATOM     47  O   UNL     1     -40.065  34.535  40.953  0.00  0.00    -0.336 OA
ATOM     48  C   UNL     1     -40.544  36.321  41.312  0.00  0.00    +0.178 C 
ATOM     49  C   UNL     1     -39.720  37.312  39.831  0.00  0.00    +0.179 C 
ATOM     50  C   UNL     1     -37.872  36.056  39.347  0.00  0.00    +0.207 C 
BRANCH  49  51
ATOM     51  O   UNL     1     -39.295  38.478  39.588  0.00  0.00    -0.386 OA
ATOM     52  H   UNL     1     -38.578  38.386  40.246  0.00  0.00    +0.210 HD
ENDBRANCH  49  51
BRANCH  50  53
ATOM     53  O   UNL     1     -37.255  36.010  38.092  0.00  0.00    -0.384 OA
ATOM     54  H   UNL     1     -38.003  35.731  37.476  0.00  0.00    +0.210 HD
ENDBRANCH  50  53
BRANCH  46  55
ATOM     55  C   UNL     1     -38.661  33.870  40.759  0.00  0.00    +0.231 C 
BRANCH  55  56
ATOM     56  O   UNL     1     -38.559  32.576  40.496  0.00  0.00    -0.339 OA
BRANCH  56  57
ATOM     57  C   UNL     1     -37.046  31.593  42.049  0.00  0.00    +0.223 C 
ATOM     58  O   UNL     1     -36.463  32.270  42.863  0.00  0.00    -0.336 OA
ATOM     59  C   UNL     1     -35.589  32.831  43.618  0.00  0.00    +0.178 C 
ATOM     60  C   UNL     1     -34.431  34.060  42.289  0.00  0.00    +0.179 C 
ATOM     61  C   UNL     1     -34.897  31.841  41.343  0.00  0.00    +0.207 C 
BRANCH  60  62
ATOM     62  O   UNL     1     -33.309  34.407  42.331  0.00  0.00    -0.386 OA
ATOM     63  H   UNL     1     -33.035  33.547  42.703  0.00  0.00    +0.210 HD
ENDBRANCH  60  62
BRANCH  61  64
ATOM     64  O   UNL     1     -35.326  31.947  39.188  0.00  0.00    -0.384 OA
ATOM     65  H   UNL     1     -35.415  32.774  38.526  0.00  0.00    +0.210 HD
ENDBRANCH  61  64
BRANCH  57  66
ATOM     66  C   UNL     1     -37.616  29.449  41.104  0.00  0.00    +0.231 C 
BRANCH  66  67
ATOM     67  O   UNL     1     -36.006  27.694  41.233  0.00  0.00    -0.339 OA
BRANCH  67  68
ATOM     68  C   UNL     1     -34.284  28.780  40.001  0.00  0.00    +0.223 C 
ATOM     69  O   UNL     1     -33.073  29.172  40.012  0.00  0.00    -0.336 OA
ATOM     70  C   UNL     1     -32.534  30.996  40.757  0.00  0.00    +0.178 C 
ATOM     71  C   UNL     1     -34.339  32.310  40.101  0.00  0.00    +0.179 C 
ATOM     72  C   UNL     1     -35.727  30.404  39.257  0.00  0.00    +0.207 C 
BRANCH  71  73
ATOM     73  O   UNL     1     -35.385  33.881  38.398  0.00  0.00    -0.386 OA
ATOM     74  H   UNL     1     -34.554  33.806  37.818  0.00  0.00    +0.210 HD
ENDBRANCH  71  73
BRANCH  72  75
ATOM     75  O   UNL     1     -36.848  29.903  38.838  0.00  0.00    -0.384 OA
ATOM     76  H   UNL     1     -37.236  30.390  39.422  0.00  0.00    +0.210 HD
ENDBRANCH  72  75
BRANCH  68  77
ATOM     77  C   UNL     1     -33.666  27.856  39.364  0.00  0.00    +0.231 C 
BRANCH  77  78
ATOM     78  O   UNL     1     -33.018  27.886  38.225  0.00  0.00    -0.339 OA
BRANCH  78  79
ATOM     79  C   UNL     1     -33.731  28.149  37.141  0.00  0.00    +0.223 C 
ATOM     80  O   UNL     1     -33.904  27.070  36.552  0.00  0.00    -0.336 OA
ATOM     81  C   UNL     1     -33.841  27.572  34.448  0.00  0.00    +0.178 C 
ATOM     82  C   UNL     1     -32.005  28.877  34.779  0.00  0.00    +0.179 C 
ATOM     83  C   UNL     1     -32.427  29.448  36.862  0.00  0.00    +0.207 C 
BRANCH  82  84
ATOM     84  O   UNL     1     -31.760  29.738  33.786  0.00  0.00    -0.386 OA
ATOM     85  H   UNL     1     -32.622  30.204  33.768  0.00  0.00    +0.210 HD
ENDBRANCH  82  84
BRANCH  83  86
ATOM     86  O   UNL     1     -31.239  30.092  37.290  0.00  0.00    -0.384 OA
ATOM     87  H   UNL     1     -31.031  29.677  37.961  0.00  0.00    +0.210 HD
ENDBRANCH  83  86
BRANCH  79  88
ATOM     88  C   UNL     1     -35.023  29.366  37.844  0.00  0.00    +0.231 C 
BRANCH  88  89
ATOM     89  O   UNL     1     -33.938  31.333  37.468  0.00  0.00    -0.339 OA
BRANCH  89  90
ATOM     90  C   UNL     1     -34.473  32.392  37.792  0.00  0.00    +0.223 C 
ATOM     91  O   UNL     1     -34.219  34.445  37.207  0.00  0.00    -0.336 OA
ATOM     92  C   UNL     1     -33.313  34.752  38.298  0.00  0.00    +0.178 C 
ATOM     93  C   UNL     1     -33.004  33.199  39.468  0.00  0.00    +0.179 C 
ATOM     94  C   UNL     1     -34.197  31.138  39.812  0.00  0.00    +0.207 C 
BRANCH  93  95
ATOM     95  O   UNL     1     -32.518  33.340  41.623  0.00  0.00    -0.386 OA
ATOM     96  H   UNL     1     -33.054  33.865  41.328  0.00  0.00    +0.210 HD
ENDBRANCH  93  95
BRANCH  94  97
ATOM     97  O   UNL     1     -34.209  30.226  40.374  0.00  0.00    -0.384 OA
ATOM     98  H   UNL     1     -33.749  30.032  39.743  0.00  0.00    +0.210 HD
ENDBRANCH  94  97
BRANCH  92  99
ATOM     99  C   UNL     1     -32.040  34.593  38.028  0.00  0.00    +0.190 C 
BRANCH  99 100
ATOM    100  O   UNL     1     -31.026  34.645  39.243  0.00  0.00    -0.392 OA
ATOM    101  H   UNL     1     -31.427  35.056  40.233  0.00  0.00    +0.210 HD
ENDBRANCH  99 100
ENDBRANCH  92  99
BRANCH  90 102
ATOM    102  C   UNL     1     -36.885  32.390  37.351  0.00  0.00    +0.231 C 
BRANCH 102 103
ATOM    103  O   UNL     1     -37.012  31.230  36.870  0.00  0.00    -0.339 OA
BRANCH 103 104
ATOM    104  C   UNL     1     -35.821  31.024  35.155  0.00  0.00    +0.223 C 
ATOM    105  O   UNL     1     -35.561  33.004  35.177  0.00  0.00    -0.336 OA
ATOM    106  C   UNL     1     -36.917  32.772  34.025  0.00  0.00    +0.178 C 
ATOM    107  C   UNL     1     -37.702  30.507  33.891  0.00  0.00    +0.179 C 
ATOM    108  C   UNL     1     -36.946  29.679  34.590  0.00  0.00    +0.207 C 
BRANCH 107 109
ATOM    109  O   UNL     1     -37.715  29.621  31.974  0.00  0.00    -0.386 OA
ATOM    110  H   UNL     1     -36.877  29.950  31.809  0.00  0.00    +0.210 HD
ENDBRANCH 107 109
BRANCH 108 111
ATOM    111  O   UNL     1     -37.737  28.032  35.770  0.00  0.00    -0.384 OA
ATOM    112  H   UNL     1     -37.434  28.476  36.398  0.00  0.00    +0.210 HD
ENDBRANCH 108 111
BRANCH 104 113
ATOM    113  C   UNL     1     -34.270  30.395  35.328  0.00  0.00    +0.231 C 
BRANCH 113 114
ATOM    114  O   UNL     1     -33.221  30.356  34.530  0.00  0.00    -0.339 OA
BRANCH 114 115
ATOM    115  C   UNL     1     -33.924  29.180  34.349  0.00  0.00    +0.223 C 
ATOM    116  O   UNL     1     -34.093  28.897  33.096  0.00  0.00    -0.336 OA
ATOM    117  C   UNL     1     -35.351  28.784  32.342  0.00  0.00    +0.178 C 
ATOM    118  C   UNL     1     -36.268  29.345  32.902  0.00  0.00    +0.179 C 
ATOM    119  C   UNL     1     -35.108  29.021  34.857  0.00  0.00    +0.207 C 
BRANCH 118 120
ATOM    120  O   UNL     1     -38.124  29.005  33.284  0.00  0.00    -0.386 OA
ATOM    121  H   UNL     1     -38.128  29.083  34.150  0.00  0.00    +0.210 HD
ENDBRANCH 118 120
BRANCH 119 122
ATOM    122  O   UNL     1     -35.639  29.684  35.697  0.00  0.00    -0.384 OA
ATOM    123  H   UNL     1     -35.125  30.800  36.139  0.00  0.00    +0.210 HD
ENDBRANCH 119 122
BRANCH 115 124
ATOM    124  C   UNL     1     -32.917  27.699  35.574  0.00  0.00    +0.231 C 
BRANCH 124 125
ATOM    125  O   UNL     1     -34.423  26.194  35.133  0.00  0.00    -0.339 OA
BRANCH 125 126
ATOM    126  C   UNL     1     -34.144  24.956  35.608  0.00  0.00    +0.223 C 
ATOM    127  O   UNL     1     -35.294  24.376  35.784  0.00  0.00    -0.336 OA
ATOM    128  C   UNL     1     -35.306  24.079  37.077  0.00  0.00    +0.178 C 
ATOM    129  C   UNL     1     -34.444  24.822  37.753  0.00  0.00    +0.179 C 
ATOM    130  C   UNL     1     -33.160  25.092  37.179  0.00  0.00    +0.207 C 
BRANCH 129 131
ATOM    131  O   UNL     1     -34.187  24.577  39.228  0.00  0.00    -0.386 OA
ATOM    132  H   UNL     1     -33.340  24.210  39.227  0.00  0.00    +0.210 HD
ENDBRANCH 129 131
BRANCH 130 133
ATOM    133  O   UNL     1     -32.094  26.527  37.050  0.00  0.00    -0.384 OA
ATOM    134  H   UNL     1     -32.765  27.100  37.388  0.00  0.00    +0.210 HD
ENDBRANCH 130 133
BRANCH 126 135
ATOM    135  C   UNL     1     -33.051  24.765  34.613  0.00  0.00    +0.231 C 
BRANCH 135 136
ATOM    136  O   UNL     1     -33.223  25.556  32.987  0.00  0.00    -0.339 OA
BRANCH 136 137
ATOM    137  C   UNL     1     -34.489  25.145  32.814  0.00  0.00    +0.223 C 
ATOM    138  O   UNL     1     -35.807  25.015  33.104  0.00  0.00    -0.336 OA
ATOM    139  C   UNL     1     -36.056  23.638  33.212  0.00  0.00    +0.178 C 
ATOM    140  C   UNL     1     -34.844  22.973  33.678  0.00  0.00    +0.179 C 
ATOM    141  C   UNL     1     -34.041  23.747  32.902  0.00  0.00    +0.207 C 
BRANCH 140 142
ATOM    142  O   UNL     1     -34.557  21.633  33.491  0.00  0.00    -0.386 OA
ATOM    143  H   UNL     1     -34.617  21.428  32.556  0.00  0.00    +0.210 HD
ENDBRANCH 140 142
BRANCH 141 144
ATOM    144  O   UNL     1     -32.641  22.969  33.636  0.00  0.00    -0.384 OA
ATOM    145  H   UNL     1     -31.940  23.823  34.192  0.00  0.00    +0.210 HD
ENDBRANCH 141 144
BRANCH 137 146
ATOM    146  C   UNL     1     -34.914  26.201  31.977  0.00  0.00    +0.231 C 
BRANCH 146 147
ATOM    147  O   UNL     1     -33.769  26.033  31.354  0.00  0.00    -0.339 OA
BRANCH 147 148
ATOM    148  C   UNL     1     -33.305  26.813  30.434  0.00  0.00    +0.223 C 
ATOM    149  O   UNL     1     -31.868  26.854  30.104  0.00  0.00    -0.336 OA
ATOM    150  C   UNL     1     -31.019  27.742  30.709  0.00  0.00    +0.178 C 
ATOM    151  C   UNL     1     -32.027  28.528  31.366  0.00  0.00    +0.179 C 
ATOM    152  C   UNL     1     -33.169  28.182  30.547  0.00  0.00    +0.207 C 
BRANCH 151 153
ATOM    153  O   UNL     1     -31.682  29.829  31.322  0.00  0.00    -0.386 OA
ATOM    154  H   UNL     1     -31.675  30.192  30.435  0.00  0.00    +0.210 HD
ENDBRANCH 151 153
BRANCH 152 155
ATOM    155  O   UNL     1     -34.142  28.306  31.251  0.00  0.00    -0.384 OA
ATOM    156  H   UNL     1     -33.935  28.123  32.236  0.00  0.00    +0.210 HD
ENDBRANCH 152 155
BRANCH 148 157
ATOM    157  C   UNL     1     -34.284  26.184  29.285  0.00  0.00    +0.231 C 
BRANCH 157 158
ATOM    158  O   UNL     1     -34.718  24.909  29.654  0.00  0.00    -0.339 OA
BRANCH 158 159
ATOM    159  C   UNL     1     -33.587  24.045  29.803  0.00  0.00    +0.223 C 
ATOM    160  O   UNL     1     -32.957  23.309  30.802  0.00  0.00    -0.336 OA
ATOM    161  C   UNL     1     -31.813  23.814  31.396  0.00  0.00    +0.178 C 
ATOM    162  C   UNL     1     -31.608  24.929  30.636  0.00  0.00    +0.179 C 
ATOM    163  C   UNL     1     -32.336  24.634  29.352  0.00  0.00    +0.207 C 
BRANCH 162 164
ATOM    164  O   UNL     1     -30.311  25.312  30.433  0.00  0.00    -0.386 OA
ATOM    165  H   UNL     1     -29.801  24.657  30.021  0.00  0.00    +0.210 HD
ENDBRANCH 162 164
BRANCH 163 166
ATOM    166  O   UNL     1     -32.278  25.748  28.505  0.00  0.00    -0.384 OA
ATOM    167  H   UNL     1     -32.642  26.568  28.942  0.00  0.00    +0.210 HD
ENDBRANCH 163 166
BRANCH 159 168
ATOM    168  C   UNL     1     -34.130  22.841  29.294  0.00  0.00    +0.231 C 
BRANCH 168 169
ATOM    169  O   UNL     1     -34.853  23.243  28.165  0.00  0.00    -0.339 OA
BRANCH 169 170
ATOM    170  C   UNL     1     -35.674  22.343  27.508  0.00  0.00    +0.223 C 
ATOM    171  O   UNL     1     -36.589  22.740  26.590  0.00  0.00    -0.336 OA
ATOM    172  C   UNL     1     -37.870  22.498  27.133  0.00  0.00    +0.178 C 
ATOM    173  C   UNL     1     -37.748  22.221  28.736  0.00  0.00    +0.179 C 
ATOM    174  C   UNL     1     -36.293  21.669  28.924  0.00  0.00    +0.207 C 
BRANCH 173 175
ATOM    175  O   UNL     1     -38.753  21.492  29.366  0.00  0.00    -0.386 OA
ATOM    176  H   UNL     1     -38.708  20.594  28.917  0.00  0.00    +0.210 HD
ENDBRANCH 173 175
BRANCH 174 177
ATOM    177  O   UNL     1     -35.852  21.358  30.207  0.00  0.00    -0.384 OA
ATOM    178  H   UNL     1     -36.005  22.271  30.419  0.00  0.00    +0.210 HD
ENDBRANCH 174 177
BRANCH 170 179
ATOM    179  C   UNL     1     -34.311  21.256  26.454  0.00  0.00    +0.231 C 
BRANCH 179 180
ATOM    180  O   UNL     1     -34.962  20.446  25.577  0.00  0.00    -0.339 OA
BRANCH 180 181
ATOM    181  C   UNL     1     -35.832  19.485  26.161  0.00  0.00    +0.223 C 
ATOM    182  O   UNL     1     -37.293  19.280  26.075  0.00  0.00    -0.336 OA
ATOM    183  C   UNL     1     -38.040  19.267  27.248  0.00  0.00    +0.178 C 
ATOM    184  C   UNL     1     -37.166  20.031  27.937  0.00  0.00    +0.179 C 
ATOM    185  C   UNL     1     -35.577  19.617  27.563  0.00  0.00    +0.207 C 
BRANCH 184 186
ATOM    186  O   UNL     1     -37.478  20.045  29.594  0.00  0.00    -0.386 OA
ATOM    187  H   UNL     1     -36.905  19.412  29.988  0.00  0.00    +0.210 HD
ENDBRANCH 184 186
BRANCH 185 188
ATOM    188  O   UNL     1     -34.721  20.667  28.218  0.00  0.00    -0.384 OA
ATOM    189  H   UNL     1     -34.485  21.572  27.898  0.00  0.00    +0.210 HD
ENDBRANCH 185 188
BRANCH 181 190
ATOM    190  C   UNL     1     -35.661  18.409  25.204  0.00  0.00    +0.231 C 
BRANCH 190 191
ATOM    191  O   UNL     1     -34.386  17.837  25.247  0.00  0.00    -0.339 OA
BRANCH 191 192
ATOM    192  C   UNL     1     -34.291  16.834  24.246  0.00  0.00    +0.223 C 
ATOM    193  O   UNL     1     -34.879  15.640  24.800  0.00  0.00    -0.336 OA
ATOM    194  C   UNL     1     -33.843  14.662  24.983  0.00  0.00    +0.178 C 
ATOM    195  C   UNL     1     -32.519  15.414  24.870  0.00  0.00    +0.179 C 
ATOM    196  C   UNL     1     -32.850  16.505  23.871  0.00  0.00    +0.207 C 
BRANCH 195 197
ATOM    197  O   UNL     1     -31.395  14.611  24.541  0.00  0.00    -0.386 OA
ATOM    198  H   UNL     1     -31.528  14.191  23.683  0.00  0.00    +0.210 HD
ENDBRANCH 195 197
BRANCH 196 199
ATOM    199  O   UNL     1     -31.984  17.624  23.946  0.00  0.00    -0.384 OA
ATOM    200  H   UNL     1     -32.044  17.985  24.849  0.00  0.00    +0.210 HD
ENDBRANCH 196 199
BRANCH 192 201
ATOM    201  C   UNL     1     -34.954  17.330  22.987  0.00  0.00    +0.231 C 
BRANCH 201 202
ATOM    202  O   UNL     1     -34.632  18.709  22.745  0.00  0.00    -0.339 OA
BRANCH 202 205
ATOM    203  C   UNL     1     -35.926  21.479  21.655  0.00  0.00    +0.178 C 
ATOM    204  O   UNL     1     -34.902  20.565  21.354  0.00  0.00    -0.336 OA
ATOM    205  C   UNL     1     -35.337  19.168  21.623  0.00  0.00    +0.223 C 
ATOM    206  C   UNL     1     -36.837  19.287  21.773  0.00  0.00    +0.207 C 
ATOM    207  C   UNL     1     -36.990  20.678  22.367  0.00  0.00    +0.179 C 
BRANCH 206 208
ATOM    208  O   UNL     1     -37.483  18.265  22.496  0.00  0.00    -0.384 OA
ATOM    209  H   UNL     1     -37.133  18.258  23.397  0.00  0.00    +0.210 HD
ENDBRANCH 206 208
BRANCH 207 210
ATOM    210  O   UNL     1     -38.279  21.231  22.173  0.00  0.00    -0.386 OA
ATOM    211  H   UNL     1     -38.469  21.256  21.220  0.00  0.00    +0.210 HD
ENDBRANCH 207 210
BRANCH 203 212
ATOM    212  C   UNL     1     -35.512  22.605  22.573  0.00  0.00    +0.190 C 
BRANCH 212 213
ATOM    213  O   UNL     1     -35.424  23.829  21.849  0.00  0.00    -0.392 OA
ATOM    214  H   UNL     1     -34.742  23.729  21.159  0.00  0.00    +0.210 HD
ENDBRANCH 212 213
ENDBRANCH 203 212
BRANCH 205 215
ATOM    215  C   UNL     1     -34.902  18.292  20.462  0.00  0.00    +0.223 C 
BRANCH 215 216
ATOM    216  O   UNL     1     -34.109  19.306  19.881  0.00  0.00    -0.390 OA
ATOM    217  H   UNL     1     -34.737  20.089  19.861  0.00  0.00    +0.210 HD
ENDBRANCH 215 216
ENDBRANCH 205 215
ENDBRANCH 202 205
ENDBRANCH 201 202
ENDBRANCH 192 201
BRANCH 194 218
ATOM    218  C   UNL     1     -33.980  13.957  26.318  0.00  0.00    +0.190 C 
BRANCH 218 219
ATOM    219  O   UNL     1     -32.701  13.671  26.863  0.00  0.00    -0.392 OA
ATOM    220  H   UNL     1     -32.198  13.129  26.222  0.00  0.00    +0.210 HD
ENDBRANCH 218 219
ENDBRANCH 194 218
ENDBRANCH 191 192
ENDBRANCH 190 191
ENDBRANCH 181 190
BRANCH 183 221
ATOM    221  C   UNL     1     -39.330  19.985  27.136  0.00  0.00    +0.190 C 
BRANCH 221 222
ATOM    222  O   UNL     1     -39.974  20.365  28.312  0.00  0.00    -0.392 OA
ATOM    223  H   UNL     1     -39.836  19.762  29.086  0.00  0.00    +0.210 HD
ENDBRANCH 221 222
ENDBRANCH 183 221
ENDBRANCH 180 181
ENDBRANCH 179 180
ENDBRANCH 170 179
BRANCH 172 224
ATOM    224  C   UNL     1     -38.790  23.561  26.887  0.00  0.00    +0.190 C 
BRANCH 224 225
ATOM    225  O   UNL     1     -39.641  23.184  25.827  0.00  0.00    -0.392 OA
ATOM    226  H   UNL     1     -39.103  22.993  25.035  0.00  0.00    +0.210 HD
ENDBRANCH 224 225
ENDBRANCH 172 224
ENDBRANCH 169 170
ENDBRANCH 168 169
ENDBRANCH 159 168
BRANCH 161 227
ATOM    227  C   UNL     1     -31.469  24.307  32.710  0.00  0.00    +0.190 C 
BRANCH 227 228
ATOM    228  O   UNL     1     -30.978  25.468  33.174  0.00  0.00    -0.392 OA
ATOM    229  H   UNL     1     -30.134  25.392  32.802  0.00  0.00    +0.210 HD
ENDBRANCH 227 228
ENDBRANCH 161 227
ENDBRANCH 158 159
ENDBRANCH 157 158
ENDBRANCH 148 157
BRANCH 150 230
ATOM    230  C   UNL     1     -29.863  27.371  31.599  0.00  0.00    +0.190 C 
BRANCH 230 231
ATOM    231  O   UNL     1     -30.239  27.452  32.950  0.00  0.00    -0.392 OA
ATOM    232  H   UNL     1     -30.634  28.319  33.125  0.00  0.00    +0.210 HD
ENDBRANCH 230 231
ENDBRANCH 150 230
ENDBRANCH 147 148
ENDBRANCH 146 147
ENDBRANCH 137 146
BRANCH 139 233
ATOM    233  C   UNL     1     -37.094  23.446  34.236  0.00  0.00    +0.190 C 
BRANCH 233 234
ATOM    234  O   UNL     1     -36.999  22.135  34.756  0.00  0.00    -0.392 OA
ATOM    235  H   UNL     1     -37.074  21.517  34.007  0.00  0.00    +0.210 HD
ENDBRANCH 233 234
ENDBRANCH 139 233
ENDBRANCH 136 137
ENDBRANCH 135 136
ENDBRANCH 126 135
BRANCH 128 236
ATOM    236  C   UNL     1     -36.675  24.277  37.509  0.00  0.00    +0.190 C 
BRANCH 236 237
ATOM    237  O   UNL     1     -37.424  25.154  36.712  0.00  0.00    -0.392 OA
ATOM    238  H   UNL     1     -36.987  25.990  36.762  0.00  0.00    +0.210 HD
ENDBRANCH 236 237
ENDBRANCH 128 236
ENDBRANCH 125 126
ENDBRANCH 124 125
ENDBRANCH 115 124
BRANCH 117 239
ATOM    239  C   UNL     1     -35.409  29.776  31.392  0.00  0.00    +0.190 C 
BRANCH 239 240
ATOM    240  O   UNL     1     -36.522  30.139  30.672  0.00  0.00    -0.392 OA
ATOM    241  H   UNL     1     -37.529  29.788  30.872  0.00  0.00    +0.210 HD
ENDBRANCH 239 240
ENDBRANCH 117 239
ENDBRANCH 114 115
ENDBRANCH 113 114
ENDBRANCH 104 113
BRANCH 106 242
ATOM    242  C   UNL     1     -37.848  33.795  33.815  0.00  0.00    +0.190 C 
BRANCH 242 243
ATOM    243  O   UNL     1     -38.147  34.700  34.712  0.00  0.00    -0.392 OA
ATOM    244  H   UNL     1     -38.100  34.381  35.668  0.00  0.00    +0.210 HD
ENDBRANCH 242 243
ENDBRANCH 106 242
ENDBRANCH 103 104
ENDBRANCH 102 103
ENDBRANCH  90 102
ENDBRANCH  89  90
ENDBRANCH  88  89
ENDBRANCH  79  88
BRANCH  81 245
ATOM    245  C   UNL     1     -33.043  26.664  34.113  0.00  0.00    +0.190 C 
BRANCH 245 246
ATOM    246  O   UNL     1     -32.707  26.081  35.504  0.00  0.00    -0.392 OA
ATOM    247  H   UNL     1     -33.352  26.251  36.203  0.00  0.00    +0.210 HD
ENDBRANCH 245 246
ENDBRANCH  81 245
ENDBRANCH  78  79
ENDBRANCH  77  78
ENDBRANCH  68  77
BRANCH  70 248
ATOM    248  C   UNL     1     -31.922  31.936  41.404  0.00  0.00    +0.190 C 
BRANCH 248 249
ATOM    249  O   UNL     1     -32.417  34.072  40.503  0.00  0.00    -0.392 OA
ATOM    250  H   UNL     1     -31.719  33.897  40.002  0.00  0.00    +0.210 HD
ENDBRANCH 248 249
ENDBRANCH  70 248
ENDBRANCH  67  68
ENDBRANCH  66  67
ENDBRANCH  57  66
BRANCH  59 251
ATOM    251  C   UNL     1     -35.833  34.702  44.807  0.00  0.00    +0.190 C 
BRANCH 251 252
ATOM    252  O   UNL     1     -37.786  34.755  44.946  0.00  0.00    -0.392 OA
ATOM    253  H   UNL     1     -38.078  34.358  43.879  0.00  0.00    +0.210 HD
ENDBRANCH 251 252
ENDBRANCH  59 251
ENDBRANCH  56  57
ENDBRANCH  55  56
ENDBRANCH  46  55
BRANCH  48 254
ATOM    254  C   UNL     1     -41.847  36.438  41.410  0.00  0.00    +0.190 C 
BRANCH 254 255
ATOM    255  O   UNL     1     -41.949  37.687  40.922  0.00  0.00    -0.392 OA
ATOM    256  H   UNL     1     -41.450  38.345  41.384  0.00  0.00    +0.210 HD
ENDBRANCH 254 255
ENDBRANCH  48 254
ENDBRANCH  45  46
ENDBRANCH  44  45
ENDBRANCH  35  44
BRANCH  37 257
ATOM    257  C   UNL     1     -40.470  38.603  36.198  0.00  0.00    +0.190 C 
BRANCH 257 258
ATOM    258  O   UNL     1     -39.226  39.224  36.484  0.00  0.00    -0.392 OA
ATOM    259  H   UNL     1     -39.015  39.054  37.429  0.00  0.00    +0.210 HD
ENDBRANCH 257 258
ENDBRANCH  37 257
ENDBRANCH  34  35
ENDBRANCH  33  34
ENDBRANCH  24  33
BRANCH  26 260
ATOM    260  C   UNL     1     -39.448  39.897  42.728  0.00  0.00    +0.190 C 
BRANCH 260 261
ATOM    261  O   UNL     1     -39.997  40.339  43.932  0.00  0.00    -0.392 OA
ATOM    262  H   UNL     1     -40.969  40.264  43.897  0.00  0.00    +0.210 HD
ENDBRANCH 260 261
ENDBRANCH  26 260
ENDBRANCH  23  24
ENDBRANCH  22  23
ENDBRANCH  13  22
BRANCH  15 263
ATOM    263  C   UNL     1     -38.337  31.992  45.881  0.00  0.00    +0.190 C 
BRANCH 263 264
ATOM    264  O   UNL     1     -37.419  30.461  44.750  0.00  0.00    -0.392 OA
ATOM    265  H   UNL     1     -37.856  30.944  43.452  0.00  0.00    +0.210 HD
ENDBRANCH 263 264
ENDBRANCH  15 263
ENDBRANCH  12  13
ENDBRANCH  11  12
ENDBRANCH   2  11
BRANCH   4 266
ATOM    266  C   UNL     1     -34.623  35.648  40.382  0.00  0.00    +0.190 C 
BRANCH 266 267
ATOM    267  O   UNL     1     -33.845  35.945  41.178  0.00  0.00    -0.392 OA
ATOM    268  H   UNL     1     -33.749  36.074  42.039  0.00  0.00    +0.210 HD
ENDBRANCH 266 267
ENDBRANCH   4 266
ENDBRANCH   1   2
BRANCH   1 269
ATOM    269  C   UNL     1     -36.182  28.928  41.514  0.00  0.00    +0.231 C 
BRANCH 269 270
ATOM    270  C   UNL     1     -36.576  27.210  39.895  0.00  0.00    +0.223 C 
ATOM    271  O   UNL     1     -36.407  27.616  38.587  0.00  0.00    -0.336 OA
ATOM    272  C   UNL     1     -35.052  27.507  38.008  0.00  0.00    +0.178 C 
ATOM    273  C   UNL     1     -34.178  26.532  38.412  0.00  0.00    +0.179 C 
ATOM    274  C   UNL     1     -34.867  26.597  40.592  0.00  0.00    +0.207 C 
BRANCH 273 275
ATOM    275  O   UNL     1     -32.380  26.247  38.697  0.00  0.00    -0.386 OA
ATOM    276  H   UNL     1     -32.099  27.170  38.485  0.00  0.00    +0.210 HD
ENDBRANCH 273 275
BRANCH 274 277
ATOM    277  O   UNL     1     -34.619  25.912  41.518  0.00  0.00    -0.384 OA
ATOM    278  H   UNL     1     -35.329  25.860  40.837  0.00  0.00    +0.210 HD
ENDBRANCH 274 277
BRANCH 270 279
ATOM    279  O   UNL     1     -37.660  26.781  39.643  0.00  0.00    -0.339 OA
BRANCH 279 280
ATOM    280  C   UNL     1     -38.351  27.444  40.537  0.00  0.00    +0.231 C 
BRANCH 280 281
ATOM    281  C   UNL     1     -39.494  27.069  40.886  0.00  0.00    +0.223 C 
ATOM    282  O   UNL     1     -39.963  27.555  39.655  0.00  0.00    -0.336 OA
ATOM    283  C   UNL     1     -40.286  26.372  39.035  0.00  0.00    +0.178 C 
ATOM    284  C   UNL     1     -40.256  25.329  40.167  0.00  0.00    +0.179 C 
ATOM    285  C   UNL     1     -39.083  25.700  41.000  0.00  0.00    +0.207 C 
BRANCH 284 286
ATOM    286  O   UNL     1     -40.223  23.995  39.764  0.00  0.00    -0.386 OA
ATOM    287  H   UNL     1     -39.433  23.835  39.232  0.00  0.00    +0.210 HD
ENDBRANCH 284 286
BRANCH 285 288
ATOM    288  O   UNL     1     -39.083  25.306  42.356  0.00  0.00    -0.384 OA
ATOM    289  H   UNL     1     -39.896  25.676  42.753  0.00  0.00    +0.210 HD
ENDBRANCH 285 288
BRANCH 281 290
ATOM    290  O   UNL     1     -39.962  27.396  42.066  0.00  0.00    -0.339 OA
BRANCH 290 291
ATOM    291  C   UNL     1     -39.819  28.592  42.425  0.00  0.00    +0.231 C 
BRANCH 291 292
ATOM    292  C   UNL     1     -38.495  28.462  43.229  0.00  0.00    +0.223 C 
ATOM    293  O   UNL     1     -37.886  28.686  42.270  0.00  0.00    -0.336 OA
ATOM    294  C   UNL     1     -36.435  30.290  41.873  0.00  0.00    +0.178 C 
ATOM    295  C   UNL     1     -36.635  30.928  43.608  0.00  0.00    +0.179 C 
ATOM    296  C   UNL     1     -38.308  29.723  43.720  0.00  0.00    +0.207 C 
BRANCH 295 297
ATOM    297  O   UNL     1     -37.000  32.912  44.227  0.00  0.00    -0.386 OA
ATOM    298  H   UNL     1     -37.658  33.318  43.137  0.00  0.00    +0.210 HD
ENDBRANCH 295 297
BRANCH 296 299
ATOM    299  O   UNL     1     -38.363  30.251  45.775  0.00  0.00    -0.384 OA
ATOM    300  H   UNL     1     -37.330  29.774  45.531  0.00  0.00    +0.210 HD
ENDBRANCH 296 299
BRANCH 292 301
ATOM    301  O   UNL     1     -37.332  27.864  43.320  0.00  0.00    -0.339 OA
BRANCH 301 302
ATOM    302  C   UNL     1     -36.777  28.104  44.468  0.00  0.00    +0.231 C 
BRANCH 302 303
ATOM    303  C   UNL     1     -36.240  27.058  45.134  0.00  0.00    +0.223 C 
ATOM    304  O   UNL     1     -36.451  26.145  44.076  0.00  0.00    -0.336 OA
ATOM    305  C   UNL     1     -35.220  25.550  43.880  0.00  0.00    +0.178 C 
ATOM    306  C   UNL     1     -34.418  25.850  45.113  0.00  0.00    +0.179 C 
ATOM    307  C   UNL     1     -34.830  27.229  45.471  0.00  0.00    +0.207 C 
BRANCH 306 308
ATOM    308  O   UNL     1     -33.049  25.659  45.057  0.00  0.00    -0.386 OA
ATOM    309  H   UNL     1     -32.867  26.396  44.494  0.00  0.00    +0.210 HD
ENDBRANCH 306 308
BRANCH 307 310
ATOM    310  O   UNL     1     -34.532  27.470  46.825  0.00  0.00    -0.384 OA
ATOM    311  H   UNL     1     -35.136  26.921  47.368  0.00  0.00    +0.210 HD
ENDBRANCH 307 310
BRANCH 303 312
ATOM    312  O   UNL     1     -36.956  26.845  46.358  0.00  0.00    -0.339 OA
BRANCH 312 313
ATOM    313  C   UNL     1     -38.313  27.280  46.448  0.00  0.00    +0.231 C 
BRANCH 313 314
ATOM    314  C   UNL     1     -38.537  28.671  46.446  0.00  0.00    +0.223 C 
ATOM    315  O   UNL     1     -38.685  28.784  45.114  0.00  0.00    -0.336 OA
ATOM    316  C   UNL     1     -39.686  29.849  44.715  0.00  0.00    +0.178 C 
ATOM    317  C   UNL     1     -40.368  30.477  45.606  0.00  0.00    +0.179 C 
ATOM    318  C   UNL     1     -39.978  29.208  46.283  0.00  0.00    +0.207 C 
BRANCH 317 319
ATOM    319  O   UNL     1     -41.266  30.925  44.707  0.00  0.00    -0.386 OA
ATOM    320  H   UNL     1     -41.548  30.168  44.194  0.00  0.00    +0.210 HD
ENDBRANCH 317 319
BRANCH 318 321
ATOM    321  O   UNL     1     -40.341  29.551  47.517  0.00  0.00    -0.384 OA
ATOM    322  H   UNL     1     -39.729  30.263  47.799  0.00  0.00    +0.210 HD
ENDBRANCH 318 321
BRANCH 314 323
ATOM    323  O   UNL     1     -37.547  29.480  47.215  0.00  0.00    -0.339 OA
BRANCH 323 324
ATOM    324  C   UNL     1     -36.187  29.316  46.957  0.00  0.00    +0.231 C 
BRANCH 324 325
ATOM    325  C   UNL     1     -35.432  30.105  47.929  0.00  0.00    +0.223 C 
ATOM    326  O   UNL     1     -35.648  31.441  47.526  0.00  0.00    -0.336 OA
ATOM    327  C   UNL     1     -35.981  32.318  48.518  0.00  0.00    +0.178 C 
ATOM    328  C   UNL     1     -35.596  31.558  49.757  0.00  0.00    +0.179 C 
ATOM    329  C   UNL     1     -35.880  30.103  49.357  0.00  0.00    +0.207 C 
BRANCH 328 330
ATOM    330  O   UNL     1     -36.239  31.992  50.932  0.00  0.00    -0.386 OA
ATOM    331  H   UNL     1     -37.194  31.885  50.841  0.00  0.00    +0.210 HD
ENDBRANCH 328 330
BRANCH 329 332
ATOM    332  O   UNL     1     -35.146  29.175  50.161  0.00  0.00    -0.384 OA
ATOM    333  H   UNL     1     -34.193  29.364  50.042  0.00  0.00    +0.210 HD
ENDBRANCH 329 332
BRANCH 325 334
ATOM    334  O   UNL     1     -34.113  29.618  48.022  0.00  0.00    -0.339 OA
BRANCH 334 335
ATOM    335  C   UNL     1     -33.131  30.494  47.622  0.00  0.00    +0.231 C 
BRANCH 335 336
ATOM    336  C   UNL     1     -33.124  31.319  46.421  0.00  0.00    +0.223 C 
ATOM    337  O   UNL     1     -34.353  31.128  46.054  0.00  0.00    -0.336 OA
ATOM    338  C   UNL     1     -34.582  32.338  46.014  0.00  0.00    +0.178 C 
ATOM    339  C   UNL     1     -33.405  33.201  45.768  0.00  0.00    +0.179 C 
ATOM    340  C   UNL     1     -32.615  32.579  46.578  0.00  0.00    +0.207 C 
BRANCH 339 341
ATOM    341  O   UNL     1     -33.404  34.536  45.620  0.00  0.00    -0.386 OA
ATOM    342  H   UNL     1     -34.184  34.819  46.102  0.00  0.00    +0.210 HD
ENDBRANCH 339 341
BRANCH 340 343
ATOM    343  O   UNL     1     -31.317  32.838  46.360  0.00  0.00    -0.384 OA
ATOM    344  H   UNL     1     -30.991  32.440  45.525  0.00  0.00    +0.210 HD
ENDBRANCH 340 343
BRANCH 336 345
ATOM    345  O   UNL     1     -32.193  31.058  45.041  0.00  0.00    -0.339 OA
BRANCH 345 346
ATOM    346  C   UNL     1     -32.711  29.468  44.207  0.00  0.00    +0.231 C 
BRANCH 346 347
ATOM    347  C   UNL     1     -31.796  28.881  43.081  0.00  0.00    +0.223 C 
ATOM    348  O   UNL     1     -31.607  27.701  44.058  0.00  0.00    -0.336 OA
ATOM    349  C   UNL     1     -31.085  26.663  43.505  0.00  0.00    +0.178 C 
ATOM    350  C   UNL     1     -31.104  26.747  42.185  0.00  0.00    +0.179 C 
ATOM    351  C   UNL     1     -31.809  27.801  42.343  0.00  0.00    +0.207 C 
BRANCH 350 352
ATOM    352  O   UNL     1     -31.491  25.858  41.253  0.00  0.00    -0.386 OA
ATOM    353  H   UNL     1     -32.473  25.832  41.303  0.00  0.00    +0.210 HD
ENDBRANCH 350 352
BRANCH 351 354
ATOM    354  O   UNL     1     -31.433  28.530  41.505  0.00  0.00    -0.384 OA
ATOM    355  H   UNL     1     -30.957  29.200  40.986  0.00  0.00    +0.210 HD
ENDBRANCH 351 354
BRANCH 347 356
ATOM    356  O   UNL     1     -30.686  30.197  43.125  0.00  0.00    -0.339 OA
BRANCH 356 357
ATOM    357  C   UNL     1     -31.068  30.471  41.908  0.00  0.00    +0.231 C 
BRANCH 357 358
ATOM    358  C   UNL     1     -30.006  32.450  41.415  0.00  0.00    +0.223 C 
ATOM    359  O   UNL     1     -30.587  34.362  41.082  0.00  0.00    -0.336 OA
ATOM    360  C   UNL     1     -31.584  35.630  42.099  0.00  0.00    +0.178 C 
ATOM    361  C   UNL     1     -29.977  34.706  42.653  0.00  0.00    +0.179 C 
ATOM    362  C   UNL     1     -29.961  33.013  42.802  0.00  0.00    +0.207 C 
BRANCH 361 363
ATOM    363  O   UNL     1     -30.270  35.265  43.844  0.00  0.00    -0.386 OA
ATOM    364  H   UNL     1     -30.962  34.879  44.380  0.00  0.00    +0.210 HD
ENDBRANCH 361 363
BRANCH 362 365
ATOM    365  O   UNL     1     -28.800  32.572  42.878  0.00  0.00    -0.384 OA
ATOM    366  H   UNL     1     -28.585  32.711  41.920  0.00  0.00    +0.210 HD
ENDBRANCH 362 365
BRANCH 358 367
ATOM    367  O   UNL     1     -29.717  32.075  40.096  0.00  0.00    -0.339 OA
BRANCH 367 368
ATOM    368  C   UNL     1     -30.141  31.048  39.302  0.00  0.00    +0.231 C 
BRANCH 368 369
ATOM    369  C   UNL     1     -30.692  29.612  39.519  0.00  0.00    +0.223 C 
ATOM    370  O   UNL     1     -31.706  29.623  40.454  0.00  0.00    -0.336 OA
ATOM    371  C   UNL     1     -33.129  28.689  41.500  0.00  0.00    +0.178 C 
ATOM    372  C   UNL     1     -32.126  27.732  40.020  0.00  0.00    +0.179 C 
ATOM    373  C   UNL     1     -31.444  28.598  39.043  0.00  0.00    +0.207 C 
BRANCH 372 374
ATOM    374  O   UNL     1     -33.558  26.405  39.824  0.00  0.00    -0.386 OA
ATOM    375  H   UNL     1     -34.738  27.510  39.596  0.00  0.00    +0.210 HD
ENDBRANCH 372 374
BRANCH 373 376
ATOM    376  O   UNL     1     -30.774  27.839  38.291  0.00  0.00    -0.384 OA
ATOM    377  H   UNL     1     -30.615  27.363  39.092  0.00  0.00    +0.210 HD
ENDBRANCH 373 376
BRANCH 369 378
ATOM    378  O   UNL     1     -29.695  29.120  40.035  0.00  0.00    -0.339 OA
BRANCH 378 379
ATOM    379  C   UNL     1     -29.680  28.450  41.156  0.00  0.00    +0.231 C 
BRANCH 379 380
ATOM    380  C   UNL     1     -29.728  29.092  42.556  0.00  0.00    +0.223 C 
ATOM    381  O   UNL     1     -30.702  29.133  44.228  0.00  0.00    -0.336 OA
ATOM    382  C   UNL     1     -30.480  29.284  45.397  0.00  0.00    +0.178 C 
ATOM    383  C   UNL     1     -29.500  30.134  44.752  0.00  0.00    +0.179 C 
ATOM    384  C   UNL     1     -28.813  29.623  43.364  0.00  0.00    +0.207 C 
BRANCH 383 385
ATOM    385  O   UNL     1     -28.585  29.999  45.689  0.00  0.00    -0.386 OA
ATOM    386  H   UNL     1     -28.399  29.053  45.665  0.00  0.00    +0.210 HD
ENDBRANCH 383 385
BRANCH 384 387
ATOM    387  O   UNL     1     -28.104  30.517  42.597  0.00  0.00    -0.384 OA
ATOM    388  H   UNL     1     -28.755  31.306  42.557  0.00  0.00    +0.210 HD
ENDBRANCH 384 387
BRANCH 380 389
ATOM    389  O   UNL     1     -29.737  31.014  42.230  0.00  0.00    -0.339 OA
BRANCH 389 390
ATOM    390  C   UNL     1     -31.561  31.449  43.300  0.00  0.00    +0.231 C 
BRANCH 390 391
ATOM    391  C   UNL     1     -31.842  32.651  42.821  0.00  0.00    +0.223 C 
ATOM    392  O   UNL     1     -33.724  31.805  43.237  0.00  0.00    -0.336 OA
ATOM    393  C   UNL     1     -34.578  33.868  43.974  0.00  0.00    +0.178 C 
ATOM    394  C   UNL     1     -33.849  35.012  43.737  0.00  0.00    +0.179 C 
ATOM    395  C   UNL     1     -32.015  34.215  43.701  0.00  0.00    +0.207 C 
BRANCH 394 396
ATOM    396  O   UNL     1     -34.172  36.075  44.195  0.00  0.00    -0.386 OA
ATOM    397  H   UNL     1     -34.036  35.292  44.763  0.00  0.00    +0.210 HD
ENDBRANCH 394 396
BRANCH 395 398
ATOM    398  O   UNL     1     -31.481  33.982  42.621  0.00  0.00    -0.384 OA
ATOM    399  H   UNL     1     -31.812  34.233  41.450  0.00  0.00    +0.210 HD
ENDBRANCH 395 398
BRANCH 391 400
ATOM    400  O   UNL     1     -31.269  32.992  40.674  0.00  0.00    -0.339 OA
BRANCH 400 401
ATOM    401  C   UNL     1     -32.451  31.663  39.444  0.00  0.00    +0.231 C 
BRANCH 401 402
ATOM    402  C   UNL     1     -32.481  32.412  37.541  0.00  0.00    +0.223 C 
ATOM    403  O   UNL     1     -31.278  32.556  37.611  0.00  0.00    -0.336 OA
ATOM    404  C   UNL     1     -30.765  31.884  36.722  0.00  0.00    +0.178 C 
ATOM    405  C   UNL     1     -31.648  31.355  35.919  0.00  0.00    +0.179 C 
ATOM    406  C   UNL     1     -32.505  31.264  36.968  0.00  0.00    +0.207 C 
BRANCH 405 407
ATOM    407  O   UNL     1     -30.991  30.260  35.597  0.00  0.00    -0.386 OA
ATOM    408  H   UNL     1     -31.101  29.540  36.322  0.00  0.00    +0.210 HD
ENDBRANCH 405 407
BRANCH 406 409
ATOM    409  O   UNL     1     -34.621  30.503  36.785  0.00  0.00    -0.384 OA
ATOM    410  H   UNL     1     -34.962  31.119  37.268  0.00  0.00    +0.210 HD
ENDBRANCH 406 409
BRANCH 402 411
ATOM    411  O   UNL     1     -33.373  33.200  36.936  0.00  0.00    -0.339 OA
BRANCH 411 412
ATOM    412  C   UNL     1     -35.452  33.238  36.833  0.00  0.00    +0.231 C 
BRANCH 412 413
ATOM    413  C   UNL     1     -35.535  31.987  36.375  0.00  0.00    +0.223 C 
ATOM    414  O   UNL     1     -36.519  32.142  35.708  0.00  0.00    -0.336 OA
ATOM    415  C   UNL     1     -35.244  32.155  33.990  0.00  0.00    +0.178 C 
ATOM    416  C   UNL     1     -34.064  31.638  33.948  0.00  0.00    +0.179 C 
ATOM    417  C   UNL     1     -33.641  31.748  35.195  0.00  0.00    +0.207 C 
BRANCH 416 418
ATOM    418  O   UNL     1     -33.467  30.855  33.037  0.00  0.00    -0.386 OA
ATOM    419  H   UNL     1     -33.112  31.676  33.363  0.00  0.00    +0.210 HD
ENDBRANCH 416 418
BRANCH 417 420
ATOM    420  O   UNL     1     -33.086  29.597  35.640  0.00  0.00    -0.384 OA
ATOM    421  H   UNL     1     -33.698  28.989  35.918  0.00  0.00    +0.210 HD
ENDBRANCH 417 420
BRANCH 413 422
ATOM    422  O   UNL     1     -36.199  30.073  37.052  0.00  0.00    -0.339 OA
BRANCH 422 423
ATOM    423  C   UNL     1     -36.234  28.740  36.724  0.00  0.00    +0.231 C 
BRANCH 423 424
ATOM    424  C   UNL     1     -36.783  28.289  34.723  0.00  0.00    +0.223 C 
ATOM    425  O   UNL     1     -36.854  27.305  33.951  0.00  0.00    -0.336 OA
ATOM    426  C   UNL     1     -38.261  27.357  34.115  0.00  0.00    +0.178 C 
ATOM    427  C   UNL     1     -39.302  28.633  34.865  0.00  0.00    +0.179 C 
ATOM    428  C   UNL     1     -38.513  29.308  35.892  0.00  0.00    +0.207 C 
BRANCH 427 429
ATOM    429  O   UNL     1     -40.485  28.660  35.262  0.00  0.00    -0.386 OA
ATOM    430  H   UNL     1     -40.217  28.300  36.072  0.00  0.00    +0.210 HD
ENDBRANCH 427 429
BRANCH 428 431
ATOM    431  O   UNL     1     -38.603  30.974  36.436  0.00  0.00    -0.384 OA
ATOM    432  H   UNL     1     -37.667  31.417  36.103  0.00  0.00    +0.210 HD
ENDBRANCH 428 431
BRANCH 424 433
ATOM    433  O   UNL     1     -35.626  30.078  33.954  0.00  0.00    -0.339 OA
BRANCH 433 434
ATOM    434  C   UNL     1     -36.383  31.169  33.599  0.00  0.00    +0.231 C 
BRANCH 434 435
ATOM    435  C   UNL     1     -35.602  32.595  32.164  0.00  0.00    +0.223 C 
ATOM    436  O   UNL     1     -34.407  32.295  32.361  0.00  0.00    -0.336 OA
ATOM    437  C   UNL     1     -33.860  31.763  31.342  0.00  0.00    +0.178 C 
ATOM    438  C   UNL     1     -34.962  32.503  30.686  0.00  0.00    +0.179 C 
ATOM    439  C   UNL     1     -36.366  32.423  30.914  0.00  0.00    +0.207 C 
BRANCH 438 440
ATOM    440  O   UNL     1     -34.953  32.159  29.421  0.00  0.00    -0.386 OA
ATOM    441  H   UNL     1     -35.236  31.232  29.359  0.00  0.00    +0.210 HD
ENDBRANCH 438 440
BRANCH 439 442
ATOM    442  O   UNL     1     -37.319  33.400  30.844  0.00  0.00    -0.384 OA
ATOM    443  H   UNL     1     -37.016  34.069  31.448  0.00  0.00    +0.210 HD
ENDBRANCH 439 442
BRANCH 435 444
ATOM    444  O   UNL     1     -35.745  34.306  33.007  0.00  0.00    -0.339 OA
BRANCH 444 445
ATOM    445  C   UNL     1     -36.188  34.388  34.813  0.00  0.00    +0.231 C 
BRANCH 445 446
ATOM    446  C   UNL     1     -37.797  33.028  35.508  0.00  0.00    +0.223 C 
ATOM    447  O   UNL     1     -38.931  33.325  35.946  0.00  0.00    -0.336 OA
ATOM    448  C   UNL     1     -39.955  32.566  35.649  0.00  0.00    +0.178 C 
ATOM    449  C   UNL     1     -39.830  31.254  35.376  0.00  0.00    +0.179 C 
ATOM    450  C   UNL     1     -38.620  31.969  35.016  0.00  0.00    +0.207 C 
BRANCH 449 451
ATOM    451  O   UNL     1     -40.359  30.634  34.429  0.00  0.00    -0.386 OA
ATOM    452  H   UNL     1     -39.917  30.687  33.602  0.00  0.00    +0.210 HD
ENDBRANCH 449 451
BRANCH 450 453
ATOM    453  O   UNL     1     -37.544  30.610  35.526  0.00  0.00    -0.384 OA
ATOM    454  H   UNL     1     -36.962  30.249  36.262  0.00  0.00    +0.210 HD
ENDBRANCH 450 453
BRANCH 446 455
ATOM    455  O   UNL     1     -38.179  32.915  36.651  0.00  0.00    -0.339 OA
BRANCH 455 456
ATOM    456  C   UNL     1     -38.820  31.521  37.882  0.00  0.00    +0.231 C 
BRANCH 456 457
ATOM    457  C   UNL     1     -37.776  31.315  38.549  0.00  0.00    +0.226 C 
ATOM    458  O   UNL     1     -35.785  31.928  38.002  0.00  0.00    -0.336 OA
ATOM    459  C   UNL     1     -34.394  33.383  39.080  0.00  0.00    +0.178 C 
ATOM    460  C   UNL     1     -35.939  33.199  40.981  0.00  0.00    +0.179 C 
ATOM    461  C   UNL     1     -37.608  32.208  39.477  0.00  0.00    +0.207 C 
BRANCH 460 462
ATOM    462  O   UNL     1     -35.809  33.607  42.142  0.00  0.00    -0.386 OA
ATOM    463  H   UNL     1     -36.037  34.487  42.333  0.00  0.00    +0.210 HD
ENDBRANCH 460 462
BRANCH 461 464
ATOM    464  O   UNL     1     -39.530  31.325  40.090  0.00  0.00    -0.384 OA
ATOM    465  H   UNL     1     -38.832  30.723  40.981  0.00  0.00    +0.210 HD
ENDBRANCH 461 464
BRANCH 457 466
ATOM    466  O   UNL     1     -38.432  29.521  38.868  0.00  0.00    -0.312 OA
BRANCH 466 467
ATOM    467  C   UNL     1     -37.037  28.941  40.028  0.00  0.00    +0.285 C 
ATOM    468  O   UNL     1     -35.768  29.358  39.829  0.00  0.00    -0.340 OA
ATOM    469  C   UNL     1     -34.734  30.977  38.509  0.00  0.00    +0.178 C 
ATOM    470  C   UNL     1     -36.089  32.940  39.628  0.00  0.00    +0.177 C 
ATOM    471  C   UNL     1     -37.487  32.751  41.417  0.00  0.00    +0.179 C 
ATOM    472  C   UNL     1     -37.904  30.394  42.015  0.00  0.00    +0.201 C 
BRANCH 470 473
ATOM    473  O   UNL     1     -35.497  34.292  39.797  0.00  0.00    -0.386 OA
ATOM    474  H   UNL     1     -36.102  34.353  39.141  0.00  0.00    +0.210 HD
ENDBRANCH 470 473
BRANCH 471 475
ATOM    475  O   UNL     1     -37.546  33.471  42.208  0.00  0.00    -0.386 OA
ATOM    476  H   UNL     1     -36.623  33.155  42.482  0.00  0.00    +0.210 HD
ENDBRANCH 471 475
BRANCH 472 477
ATOM    477  O   UNL     1     -39.110  30.300  42.139  0.00  0.00    -0.384 OA
ATOM    478  H   UNL     1     -39.729  30.445  41.418  0.00  0.00    +0.210 HD
ENDBRANCH 472 477
BRANCH 469 479
ATOM    479  C   UNL     1     -33.018  30.805  38.481  0.00  0.00    +0.190 C 
BRANCH 479 480
ATOM    480  O   UNL     1     -33.728  29.963  38.654  0.00  0.00    -0.392 OA
ATOM    481  H   UNL     1     -33.072  29.327  38.913  0.00  0.00    +0.210 HD
ENDBRANCH 479 480
ENDBRANCH 469 479
ENDBRANCH 466 467
ENDBRANCH 457 466
BRANCH 459 482
ATOM    482  C   UNL     1     -33.192  32.405  40.667  0.00  0.00    +0.190 C 
BRANCH 482 483
ATOM    483  O   UNL     1     -33.450  30.445  41.683  0.00  0.00    -0.392 OA
ATOM    484  H   UNL     1     -33.670  30.802  42.396  0.00  0.00    +0.210 HD
ENDBRANCH 482 483
ENDBRANCH 459 482
ENDBRANCH 456 457
ENDBRANCH 455 456
ENDBRANCH 446 455
BRANCH 448 485
ATOM    485  C   UNL     1     -40.751  32.241  36.723  0.00  0.00    +0.190 C 
BRANCH 485 486
ATOM    486  O   UNL     1     -41.037  33.278  37.420  0.00  0.00    -0.392 OA
ATOM    487  H   UNL     1     -40.262  33.640  37.863  0.00  0.00    +0.210 HD
ENDBRANCH 485 486
ENDBRANCH 448 485
ENDBRANCH 445 446
ENDBRANCH 444 445
ENDBRANCH 435 444
BRANCH 437 488
ATOM    488  C   UNL     1     -32.586  32.278  31.754  0.00  0.00    +0.190 C 
BRANCH 488 489
ATOM    489  O   UNL     1     -32.318  32.686  33.114  0.00  0.00    -0.392 OA
ATOM    490  H   UNL     1     -33.005  33.325  33.382  0.00  0.00    +0.210 HD
ENDBRANCH 488 489
ENDBRANCH 437 488
ENDBRANCH 434 435
ENDBRANCH 433 434
ENDBRANCH 424 433
BRANCH 426 491
ATOM    491  C   UNL     1     -38.562  27.231  32.758  0.00  0.00    +0.190 C 
BRANCH 491 492
ATOM    492  O   UNL     1     -39.908  27.334  32.703  0.00  0.00    -0.392 OA
ATOM    493  H   UNL     1     -40.233  26.722  33.375  0.00  0.00    +0.210 HD
ENDBRANCH 491 492
ENDBRANCH 426 491
ENDBRANCH 423 424
ENDBRANCH 422 423
ENDBRANCH 413 422
BRANCH 415 494
ATOM    494  C   UNL     1     -37.173  32.025  32.619  0.00  0.00    +0.190 C 
BRANCH 494 495
ATOM    495  O   UNL     1     -38.251  32.605  32.285  0.00  0.00    -0.392 OA
ATOM    496  H   UNL     1     -38.566  33.514  32.582  0.00  0.00    +0.210 HD
ENDBRANCH 494 495
ENDBRANCH 415 494
ENDBRANCH 412 413
ENDBRANCH 411 412
ENDBRANCH 402 411
BRANCH 404 497
ATOM    497  C   UNL     1     -30.284  32.907  36.061  0.00  0.00    +0.190 C 
BRANCH 497 498
ATOM    498  O   UNL     1     -30.092  33.805  37.101  0.00  0.00    -0.392 OA
ATOM    499  H   UNL     1     -31.030  33.935  37.140  0.00  0.00    +0.210 HD
ENDBRANCH 497 498
ENDBRANCH 404 497
ENDBRANCH 401 402
ENDBRANCH 400 401
ENDBRANCH 391 400
BRANCH 393 500
ATOM    500  C   UNL     1     -36.725  34.149  43.366  0.00  0.00    +0.190 C 
BRANCH 500 501
ATOM    501  O   UNL     1     -37.007  35.400  43.493  0.00  0.00    -0.392 OA
ATOM    502  H   UNL     1     -37.043  34.658  44.383  0.00  0.00    +0.210 HD
ENDBRANCH 500 501
ENDBRANCH 393 500
ENDBRANCH 390 391
ENDBRANCH 389 390
ENDBRANCH 380 389
BRANCH 382 503
ATOM    503  C   UNL     1     -31.610  29.667  46.125  0.00  0.00    +0.190 C 
BRANCH 503 504
ATOM    504  O   UNL     1     -33.278  29.660  45.745  0.00  0.00    -0.392 OA
ATOM    505  H   UNL     1     -33.289  30.767  44.989  0.00  0.00    +0.210 HD
ENDBRANCH 503 504
ENDBRANCH 382 503
ENDBRANCH 379 380
ENDBRANCH 378 379
ENDBRANCH 369 378
BRANCH 371 506
ATOM    506  C   UNL     1     -33.924  28.381  42.663  0.00  0.00    +0.190 C 
BRANCH 506 507
ATOM    507  O   UNL     1     -34.874  27.644  42.896  0.00  0.00    -0.392 OA
ATOM    508  H   UNL     1     -35.720  27.772  42.535  0.00  0.00    +0.210 HD
ENDBRANCH 506 507
ENDBRANCH 371 506
ENDBRANCH 368 369
ENDBRANCH 367 368
ENDBRANCH 358 367
BRANCH 360 509
ATOM    509  C   UNL     1     -32.034  36.367  40.985  0.00  0.00    +0.190 C 
BRANCH 509 510
ATOM    510  O   UNL     1     -32.494  35.949  39.742  0.00  0.00    -0.392 OA
ATOM    511  H   UNL     1     -31.985  35.309  39.281  0.00  0.00    +0.210 HD
ENDBRANCH 509 510
ENDBRANCH 360 509
ENDBRANCH 357 358
ENDBRANCH 356 357
ENDBRANCH 347 356
BRANCH 349 512
ATOM    512  C   UNL     1     -29.878  26.141  43.923  0.00  0.00    +0.190 C 
BRANCH 512 513
ATOM    513  O   UNL     1     -29.761  25.019  43.095  0.00  0.00    -0.392 OA
ATOM    514  H   UNL     1     -30.574  24.474  43.194  0.00  0.00    +0.210 HD
ENDBRANCH 512 513
ENDBRANCH 349 512
ENDBRANCH 346 347
ENDBRANCH 345 346
ENDBRANCH 336 345
BRANCH 338 515
ATOM    515  C   UNL     1     -35.206  31.880  44.936  0.00  0.00    +0.190 C 
BRANCH 515 516
ATOM    516  O   UNL     1     -34.839  30.534  44.577  0.00  0.00    -0.392 OA
ATOM    517  H   UNL     1     -34.410  30.577  43.676  0.00  0.00    +0.210 HD
ENDBRANCH 515 516
ENDBRANCH 338 515
ENDBRANCH 335 336
ENDBRANCH 334 335
ENDBRANCH 325 334
BRANCH 327 518
ATOM    518  C   UNL     1     -35.267  33.643  48.388  0.00  0.00    +0.190 C 
BRANCH 518 519
ATOM    519  O   UNL     1     -35.471  34.421  49.529  0.00  0.00    -0.392 OA
ATOM    520  H   UNL     1     -36.428  34.563  49.642  0.00  0.00    +0.210 HD
ENDBRANCH 518 519
ENDBRANCH 327 518
ENDBRANCH 324 325
ENDBRANCH 323 324
ENDBRANCH 314 323
BRANCH 316 521
ATOM    521  C   UNL     1     -38.785  31.426  44.163  0.00  0.00    +0.190 C 
BRANCH 521 522
ATOM    522  O   UNL     1     -36.977  31.782  45.122  0.00  0.00    -0.392 OA
ATOM    523  H   UNL     1     -36.469  30.989  45.178  0.00  0.00    +0.210 HD
ENDBRANCH 521 522
ENDBRANCH 316 521
ENDBRANCH 313 314
ENDBRANCH 312 313
ENDBRANCH 303 312
BRANCH 305 524
ATOM    524  C   UNL     1     -35.417  24.111  43.609  0.00  0.00    +0.190 C 
BRANCH 524 525
ATOM    525  O   UNL     1     -34.163  23.448  43.607  0.00  0.00    -0.392 OA
ATOM    526  H   UNL     1     -33.618  23.824  42.892  0.00  0.00    +0.210 HD
ENDBRANCH 524 525
ENDBRANCH 305 524
ENDBRANCH 302 303
ENDBRANCH 301 302
ENDBRANCH 292 301
BRANCH 294 527
ATOM    527  C   UNL     1     -35.626  30.228  40.940  0.00  0.00    +0.190 C 
BRANCH 527 528
ATOM    528  O   UNL     1     -35.428  28.125  40.099  0.00  0.00    -0.392 OA
ATOM    529  H   UNL     1     -35.110  28.257  40.954  0.00  0.00    +0.210 HD
ENDBRANCH 527 528
ENDBRANCH 294 527
ENDBRANCH 291 292
ENDBRANCH 290 291
ENDBRANCH 281 290
BRANCH 283 530
ATOM    530  C   UNL     1     -41.652  26.568  38.470  0.00  0.00    +0.190 C 
BRANCH 530 531
ATOM    531  O   UNL     1     -42.166  25.321  38.053  0.00  0.00    -0.392 OA
ATOM    532  H   UNL     1     -41.565  24.940  37.386  0.00  0.00    +0.210 HD
ENDBRANCH 530 531
ENDBRANCH 283 530
ENDBRANCH 280 281
ENDBRANCH 279 280
ENDBRANCH 270 279
BRANCH 272 533
ATOM    533  C   UNL     1     -35.491  27.177  36.101  0.00  0.00    +0.190 C 
BRANCH 533 534
ATOM    534  O   UNL     1     -36.621  26.841  36.289  0.00  0.00    -0.392 OA
ATOM    535  H   UNL     1     -37.115  27.379  36.970  0.00  0.00    +0.210 HD
ENDBRANCH 533 534
ENDBRANCH 272 533
ENDBRANCH 269 270
ENDBRANCH   1 269
TORSDOF 265
