REMARK  Name = 
REMARK  2 active torsions:
REMARK  status: ('A' for Active; 'I' for Inactive)
REMARK    1  A    between atoms: N_4  and  C_5
REMARK    2  A    between atoms: C_5  and  C_6
REMARK                            x       y       z     vdW  Elec       q    Type
REMARK                         _______ _______ _______ _____ _____    ______ ____
ROOT
ATOM      1  N   UNL     1       0.834  -0.177   0.018  0.00  0.00    -0.370 N 
ATOM      2  C   UNL     1       0.193  -0.497   1.153  0.00  0.00    +0.188 C 
ATOM      3  N   UNL     1      -1.145  -0.568   0.985  0.00  0.00    -0.370 N 
ATOM      4  N   UNL     1       0.879  -0.716   2.220  0.00  0.00    -0.248 NA
ATOM      5  H   UNL     1       0.364   0.124  -0.819  0.00  0.00    +0.159 HD
ATOM      6  H   UNL     1       1.841  -0.094   0.063  0.00  0.00    +0.159 HD
ATOM      7  H   UNL     1      -1.708  -0.574   1.826  0.00  0.00    +0.159 HD
ATOM      8  H   UNL     1      -1.575  -0.059   0.228  0.00  0.00    +0.159 HD
ENDROOT
BRANCH   4   9
ATOM      9  C   UNL     1       0.154  -1.016   3.461  0.00  0.00    +0.180 C 
BRANCH   9  10
ATOM     10  C   UNL     1      -0.675   0.156   3.948  0.00  0.00    -0.025 A 
ATOM     11  C   UNL     1      -0.179   1.460   3.788  0.00  0.00    +0.019 A 
ATOM     12  C   UNL     1      -0.953   2.559   4.143  0.00  0.00    +0.014 A 
ATOM     13  I   UNL     1      -0.216   4.471   3.809  0.00  0.00    -0.044 I 
ATOM     14  C   UNL     1      -2.219   2.374   4.692  0.00  0.00    +0.014 A 
ATOM     15  C   UNL     1      -2.716   1.080   4.871  0.00  0.00    +0.001 A 
ATOM     16  C   UNL     1      -1.950  -0.027   4.500  0.00  0.00    +0.005 A 
ENDBRANCH   9  10
ENDBRANCH   4   9
TORSDOF 2
