REMARK  Name = 
REMARK  33 active torsions:
REMARK  status: ('A' for Active; 'I' for Inactive)
REMARK    1  A    between atoms: C_1  and  C_2
REMARK    2  A    between atoms: N_4  and  C_5
REMARK    3  A    between atoms: N_4  and  C_38
REMARK    4  A    between atoms: C_5  and  C_6
REMARK    5  A    between atoms: C_6  and  O_7
REMARK    6  A    between atoms: C_6  and  C_8
REMARK    7  A    between atoms: C_8  and  N_9
REMARK    8  A    between atoms: N_9  and  C_13
REMARK    9  A    between atoms: C_10  and  C_11
REMARK   10  A    between atoms: C_16  and  C_17
REMARK   11  A    between atoms: N_19  and  C_20
REMARK   12  A    between atoms: C_20  and  C_21
REMARK   13  A    between atoms: C_21  and  O_22
REMARK   14  A    between atoms: C_21  and  C_23
REMARK   15  A    between atoms: C_23  and  O_24
REMARK   16  A    between atoms: C_27  and  C_28
REMARK   17  A    between atoms: N_30  and  C_31
REMARK   18  A    between atoms: C_31  and  C_32
REMARK   19  A    between atoms: C_32  and  O_33
REMARK   20  A    between atoms: C_32  and  C_34
REMARK   21  A    between atoms: C_34  and  O_35
REMARK   22  A    between atoms: C_41  and  C_42
REMARK   23  A    between atoms: N_44  and  C_45
REMARK   24  A    between atoms: C_45  and  C_46
REMARK   25  A    between atoms: C_46  and  O_47
REMARK   26  A    between atoms: C_46  and  C_48
REMARK   27  A    between atoms: C_48  and  O_49
REMARK   28  A    between atoms: C_52  and  C_53
REMARK   29  A    between atoms: N_55  and  C_56
REMARK   30  A    between atoms: C_56  and  C_57
REMARK   31  A    between atoms: C_57  and  O_58
REMARK   32  A    between atoms: C_57  and  C_59
REMARK   33  A    between atoms: C_59  and  O_60
REMARK                            x       y       z     vdW  Elec       q    Type
REMARK                         _______ _______ _______ _____ _____    ______ ____
ROOT
ATOM      1  C   UNL     1       2.947  -0.733  -3.978  0.00  0.00    +0.150 C 
ENDROOT
BRANCH   1   2
ATOM      2  O   UNL     1       2.405  -1.465  -5.031  0.00  0.00    -0.389 OA
ATOM      3  H   UNL     1       2.021  -2.176  -4.509  0.00  0.00    +0.210 HD
ENDBRANCH   1   2
BRANCH   1   4
ATOM      4  C   UNL     1       1.698  -0.523  -3.295  0.00  0.00    +0.146 C 
BRANCH   4   8
ATOM      5  C   UNL     1       1.215   0.384   0.619  0.00  0.00    +0.109 C 
ATOM      6  C   UNL     1       1.081  -0.801  -0.261  0.00  0.00    +0.217 C 
ATOM      7  O   UNL     1       0.020  -1.222   0.478  0.00  0.00    -0.276 OA
ATOM      8  N   UNL     1       1.551  -1.484  -1.951  0.00  0.00    -0.267 N 
BRANCH   8   9
ATOM      9  C   UNL     1       0.553  -2.862  -2.839  0.00  0.00    +0.064 A 
ATOM     10  C   UNL     1      -0.854  -3.357  -2.729  0.00  0.00    +0.049 A 
ATOM     11  I   UNL     1      -1.866  -2.680  -0.962  0.00  0.00    -0.041 I 
ATOM     12  C   UNL     1      -1.508  -4.391  -3.562  0.00  0.00    +0.065 A 
ATOM     13  C   UNL     1      -0.628  -5.036  -4.544  0.00  0.00    +0.040 A 
ATOM     14  I   UNL     1      -1.412  -6.520  -5.913  0.00  0.00    -0.042 I 
ATOM     15  C   UNL     1       0.772  -4.747  -4.634  0.00  0.00    +0.065 A 
ATOM     16  C   UNL     1       1.179  -3.751  -3.722  0.00  0.00    +0.049 A 
ATOM     17  I   UNL     1       2.952  -3.579  -3.136  0.00  0.00    -0.041 I 
BRANCH  12  18
ATOM     18  C   UNL     1      -3.061  -4.930  -3.430  0.00  0.00    +0.246 C 
ATOM     19  O   UNL     1      -3.405  -5.976  -3.976  0.00  0.00    -0.270 OA
ATOM     20  N   UNL     1      -4.196  -4.382  -2.709  0.00  0.00    -0.309 N 
ATOM     21  H   UNL     1      -4.934  -5.044  -2.559  0.00  0.00    +0.149 HD
BRANCH  20  22
ATOM     22  C   UNL     1      -4.178  -3.494  -1.602  0.00  0.00    +0.138 C 
BRANCH  22  23
ATOM     23  C   UNL     1      -4.524  -1.940  -1.910  0.00  0.00    +0.157 C 
BRANCH  23  24
ATOM     24  O   UNL     1      -5.917  -2.067  -1.697  0.00  0.00    -0.388 OA
ATOM     25  H   UNL     1      -6.103  -2.922  -2.122  0.00  0.00    +0.210 HD
ENDBRANCH  23  24
BRANCH  23  26
ATOM     26  C   UNL     1      -4.133  -0.638  -1.072  0.00  0.00    +0.188 C 
BRANCH  26  27
ATOM     27  O   UNL     1      -3.097   0.092  -1.683  0.00  0.00    -0.392 OA
ATOM     28  H   UNL     1      -2.300  -0.453  -1.644  0.00  0.00    +0.210 HD
ENDBRANCH  26  27
ENDBRANCH  23  26
ENDBRANCH  22  23
ENDBRANCH  20  22
ENDBRANCH  12  18
BRANCH  15  29
ATOM     29  C   UNL     1       1.818  -5.497  -5.632  0.00  0.00    +0.246 C 
ATOM     30  O   UNL     1       1.423  -6.422  -6.337  0.00  0.00    -0.270 OA
ATOM     31  N   UNL     1       3.233  -5.254  -5.839  0.00  0.00    -0.309 N 
ATOM     32  H   UNL     1       3.642  -5.763  -6.603  0.00  0.00    +0.149 HD
BRANCH  31  33
ATOM     33  C   UNL     1       4.062  -4.128  -5.436  0.00  0.00    +0.138 C 
BRANCH  33  34
ATOM     34  C   UNL     1       5.224  -4.361  -4.056  0.00  0.00    +0.157 C 
BRANCH  34  35
ATOM     35  O   UNL     1       6.278  -4.959  -4.747  0.00  0.00    -0.388 OA
ATOM     36  H   UNL     1       5.778  -5.541  -5.343  0.00  0.00    +0.210 HD
ENDBRANCH  34  35
BRANCH  34  37
ATOM     37  C   UNL     1       5.884  -3.102  -3.057  0.00  0.00    +0.188 C 
BRANCH  37  38
ATOM     38  O   UNL     1       5.287  -2.481  -1.916  0.00  0.00    -0.392 OA
ATOM     39  H   UNL     1       4.335  -2.633  -1.934  0.00  0.00    +0.210 HD
ENDBRANCH  37  38
ENDBRANCH  34  37
ENDBRANCH  33  34
ENDBRANCH  31  33
ENDBRANCH  15  29
ENDBRANCH   8   9
ENDBRANCH   4   8
ENDBRANCH   1   4
BRANCH   1  40
ATOM     40  C   UNL     1       3.913   0.221  -4.495  0.00  0.00    +0.146 C 
BRANCH  40  41
ATOM     41  N   UNL     1       4.315   1.136  -3.400  0.00  0.00    -0.267 N 
ATOM     42  C   UNL     1       5.662   0.919  -2.879  0.00  0.00    +0.217 C 
ATOM     43  C   UNL     1       6.173   1.713  -1.630  0.00  0.00    +0.109 C 
ATOM     44  O   UNL     1       6.487   0.251  -3.506  0.00  0.00    -0.276 OA
BRANCH  41  45
ATOM     45  C   UNL     1       3.247   1.986  -2.826  0.00  0.00    +0.064 A 
ATOM     46  C   UNL     1       2.330   1.652  -1.824  0.00  0.00    +0.049 A 
ATOM     47  I   UNL     1       3.806   0.412  -0.438  0.00  0.00    -0.041 I 
ATOM     48  C   UNL     1       0.933   2.173  -1.686  0.00  0.00    +0.065 A 
ATOM     49  C   UNL     1       0.991   3.544  -1.709  0.00  0.00    +0.040 A 
ATOM     50  I   UNL     1      -0.516   4.651  -0.515  0.00  0.00    -0.042 I 
ATOM     51  C   UNL     1       2.208   4.160  -2.191  0.00  0.00    +0.065 A 
ATOM     52  C   UNL     1       3.312   3.313  -2.733  0.00  0.00    +0.049 A 
ATOM     53  I   UNL     1       5.750   3.875  -3.049  0.00  0.00    -0.041 I 
BRANCH  48  54
ATOM     54  C   UNL     1      -0.543   1.489  -1.222  0.00  0.00    +0.246 C 
ATOM     55  O   UNL     1      -1.402   2.042  -0.540  0.00  0.00    -0.270 OA
ATOM     56  N   UNL     1      -0.863   0.137  -1.206  0.00  0.00    -0.309 N 
ATOM     57  H   UNL     1      -1.321  -0.079  -0.332  0.00  0.00    +0.149 HD
BRANCH  56  58
ATOM     58  C   UNL     1      -0.187  -1.104  -1.649  0.00  0.00    +0.138 C 
BRANCH  58  59
ATOM     59  C   UNL     1       0.751  -2.671  -0.602  0.00  0.00    +0.157 C 
BRANCH  59  60
ATOM     60  O   UNL     1       0.072  -3.690   0.183  0.00  0.00    -0.388 OA
ATOM     61  H   UNL     1      -0.552  -3.040   0.580  0.00  0.00    +0.210 HD
ENDBRANCH  59  60
BRANCH  59  62
ATOM     62  C   UNL     1       2.170  -3.439  -0.615  0.00  0.00    +0.188 C 
BRANCH  62  63
ATOM     63  O   UNL     1       3.231  -2.490  -0.731  0.00  0.00    -0.392 OA
ATOM     64  H   UNL     1       2.921  -1.871  -1.435  0.00  0.00    +0.210 HD
ENDBRANCH  62  63
ENDBRANCH  59  62
ENDBRANCH  58  59
ENDBRANCH  56  58
ENDBRANCH  48  54
BRANCH  51  65
ATOM     65  C   UNL     1       2.200   5.661  -2.225  0.00  0.00    +0.246 C 
ATOM     66  O   UNL     1       1.302   6.334  -1.746  0.00  0.00    -0.270 OA
ATOM     67  N   UNL     1       3.122   6.417  -2.891  0.00  0.00    -0.309 N 
ATOM     68  H   UNL     1       3.118   7.394  -2.672  0.00  0.00    +0.149 HD
BRANCH  67  69
ATOM     69  C   UNL     1       4.216   5.910  -3.577  0.00  0.00    +0.138 C 
BRANCH  69  70
ATOM     70  C   UNL     1       4.518   5.839  -5.090  0.00  0.00    +0.157 C 
BRANCH  70  71
ATOM     71  O   UNL     1       4.845   7.186  -5.307  0.00  0.00    -0.388 OA
ATOM     72  H   UNL     1       4.185   7.664  -4.769  0.00  0.00    +0.210 HD
ENDBRANCH  70  71
BRANCH  70  73
ATOM     73  C   UNL     1       5.671   4.890  -5.745  0.00  0.00    +0.188 C 
BRANCH  73  74
ATOM     74  O   UNL     1       5.352   3.475  -5.902  0.00  0.00    -0.392 OA
ATOM     75  H   UNL     1       5.411   3.015  -5.039  0.00  0.00    +0.210 HD
ENDBRANCH  73  74
ENDBRANCH  70  73
ENDBRANCH  69  70
ENDBRANCH  67  69
ENDBRANCH  51  65
ENDBRANCH  41  45
ENDBRANCH  40  41
ENDBRANCH   1  40
TORSDOF 31
