REMARK  Name = 
REMARK  7 active torsions:
REMARK  status: ('A' for Active; 'I' for Inactive)
REMARK    1  A    between atoms: C_1  and  O_2
REMARK    2  A    between atoms: O_2  and  C_3
REMARK    3  A    between atoms: C_3  and  C_5
REMARK    4  A    between atoms: C_11  and  C_12
REMARK    5  A    between atoms: N_19  and  C_20
REMARK    6  A    between atoms: C_20  and  C_21
REMARK    7  A    between atoms: C_21  and  C_22
REMARK                            x       y       z     vdW  Elec       q    Type
REMARK                         _______ _______ _______ _____ _____    ______ ____
ROOT
ATOM      1  C   UNL     1       0.161  -3.525   0.138  0.00  0.00    +0.122 C 
ATOM      2  C   UNL     1       1.272  -4.738   0.125  0.00  0.00    +0.071 C 
ATOM      3  C   UNL     1       1.031  -6.213   0.700  0.00  0.00    +0.021 C 
ATOM      4  C   UNL     1       0.382  -7.122  -0.370  0.00  0.00    +0.020 C 
ATOM      5  C   UNL     1       0.168  -5.998  -1.331  0.00  0.00    +0.058 C 
ATOM      6  C   UNL     1      -1.241  -5.280  -0.613  0.00  0.00    +0.028 C 
ATOM      7  C   UNL     1      -1.141  -3.800  -0.844  0.00  0.00    +0.036 C 
ATOM      8  N   UNL     1       1.838  -5.466  -1.031  0.00  0.00    -0.296 NA
ENDROOT
BRANCH   7   9
ATOM      9  C   UNL     1      -1.261  -3.691  -2.414  0.00  0.00    -0.043 A 
ATOM     10  C   UNL     1      -2.320  -3.869  -3.304  0.00  0.00    +0.005 A 
ATOM     11  C   UNL     1      -2.159  -3.846  -4.765  0.00  0.00    +0.014 A 
ATOM     12  C   UNL     1      -0.946  -3.666  -5.387  0.00  0.00    +0.013 A 
ATOM     13  I   UNL     1      -0.474  -3.564  -7.402  0.00  0.00    -0.044 I 
ATOM     14  C   UNL     1       0.067  -3.478  -4.534  0.00  0.00    +0.014 A 
ATOM     15  C   UNL     1      -0.125  -3.503  -3.125  0.00  0.00    +0.005 A 
ENDBRANCH   7   9
BRANCH   1  16
ATOM     16  C   UNL     1       0.732  -2.140  -0.302  0.00  0.00    +0.312 C 
ATOM     17  O   UNL     1       1.359  -1.894  -1.290  0.00  0.00    -0.250 OA
BRANCH  16  19
ATOM     18  C   UNL     1       0.966   0.073   0.086  0.00  0.00    +0.280 C 
ATOM     19  O   UNL     1       0.405  -1.151   0.578  0.00  0.00    -0.468 OA
ENDBRANCH  16  19
ENDBRANCH   1  16
BRANCH   8  20
ATOM     20  C   UNL     1       2.964  -4.287  -1.237  0.00  0.00    +0.087 C 
BRANCH  20  21
ATOM     21  C   UNL     1       3.598  -3.949  -2.570  0.00  0.00    +0.049 C 
BRANCH  21  22
ATOM     22  C   UNL     1       2.539  -4.118  -3.537  0.00  0.00    +0.214 C 
ATOM     23  F   UNL     1       2.138  -2.803  -3.616  0.00  0.00    -0.249 F 
ENDBRANCH  21  22
ENDBRANCH  20  21
ENDBRANCH   8  20
TORSDOF 6
