REMARK  Name = 
REMARK  19 active torsions:
REMARK  status: ('A' for Active; 'I' for Inactive)
REMARK    1  A    between atoms: C_1  and  C_2
REMARK    2  A    between atoms: N_4  and  C_5
REMARK    3  A    between atoms: N_4  and  C_10
REMARK    4  A    between atoms: C_5  and  C_6
REMARK    5  A    between atoms: C_6  and  O_7
REMARK    6  A    between atoms: C_6  and  C_8
REMARK    7  A    between atoms: C_8  and  O_9
REMARK    8  A    between atoms: C_13  and  C_14
REMARK    9  A    between atoms: N_16  and  C_17
REMARK   10  A    between atoms: C_17  and  C_18
REMARK   11  A    between atoms: C_18  and  O_19
REMARK   12  A    between atoms: C_18  and  C_20
REMARK   13  A    between atoms: C_20  and  O_21
REMARK   14  A    between atoms: C_24  and  C_25
REMARK   15  A    between atoms: N_27  and  C_28
REMARK   16  A    between atoms: C_28  and  C_29
REMARK   17  A    between atoms: C_29  and  O_30
REMARK   18  A    between atoms: C_29  and  C_31
REMARK   19  A    between atoms: C_31  and  O_32
REMARK                            x       y       z     vdW  Elec       q    Type
REMARK                         _______ _______ _______ _____ _____    ______ ____
ROOT
ATOM      1  C   UNL     1       0.842   3.927  -0.005  0.00  0.00    +0.064 A 
ATOM      2  C   UNL     1      -0.575   4.128  -0.330  0.00  0.00    +0.049 A 
ATOM      3  I   UNL     1      -1.399   2.639   0.681  0.00  0.00    -0.041 I 
ATOM      4  C   UNL     1      -1.367   5.323  -0.602  0.00  0.00    +0.065 A 
ATOM      5  C   UNL     1      -0.566   6.514  -0.467  0.00  0.00    +0.040 A 
ATOM      6  I   UNL     1      -1.638   8.497  -0.572  0.00  0.00    -0.042 I 
ATOM      7  C   UNL     1       0.870   6.502  -0.091  0.00  0.00    +0.065 A 
ATOM      8  C   UNL     1       1.489   5.191   0.229  0.00  0.00    +0.049 A 
ATOM      9  I   UNL     1       3.311   5.356   2.027  0.00  0.00    -0.041 I 
ENDROOT
BRANCH   1  13
ATOM     10  C   UNL     1       1.225  -0.069  -0.210  0.00  0.00    +0.109 C 
ATOM     11  C   UNL     1       1.104   1.375  -0.721  0.00  0.00    +0.217 C 
ATOM     12  O   UNL     1       0.746   1.595  -1.875  0.00  0.00    -0.276 OA
ATOM     13  N   UNL     1       1.389   2.396   0.252  0.00  0.00    -0.267 N 
BRANCH  13  14
ATOM     14  C   UNL     1       1.537   1.807   1.703  0.00  0.00    +0.147 C 
BRANCH  14  15
ATOM     15  C   UNL     1       2.660   2.538   2.250  0.00  0.00    +0.157 C 
BRANCH  15  16
ATOM     16  O   UNL     1       1.765   3.512   2.794  0.00  0.00    -0.388 OA
ATOM     17  H   UNL     1       1.801   4.210   2.118  0.00  0.00    +0.210 HD
ENDBRANCH  15  16
BRANCH  15  18
ATOM     18  C   UNL     1       3.785   2.390   3.239  0.00  0.00    +0.188 C 
BRANCH  18  19
ATOM     19  O   UNL     1       4.301   1.096   3.281  0.00  0.00    -0.392 OA
ATOM     20  H   UNL     1       3.552   0.506   3.131  0.00  0.00    +0.210 HD
ENDBRANCH  18  19
ENDBRANCH  15  18
ENDBRANCH  14  15
ENDBRANCH  13  14
ENDBRANCH   1  13
BRANCH   4  21
ATOM     21  C   UNL     1      -2.977   5.420  -1.017  0.00  0.00    +0.246 C 
ATOM     22  O   UNL     1      -3.493   6.480  -1.385  0.00  0.00    -0.270 OA
ATOM     23  N   UNL     1      -3.947   4.397  -1.100  0.00  0.00    -0.309 N 
ATOM     24  H   UNL     1      -4.805   4.747  -1.542  0.00  0.00    +0.149 HD
BRANCH  23  25
ATOM     25  C   UNL     1      -3.724   2.959  -1.127  0.00  0.00    +0.138 C 
BRANCH  25  26
ATOM     26  C   UNL     1      -4.268   2.217   0.213  0.00  0.00    +0.157 C 
BRANCH  26  27
ATOM     27  O   UNL     1      -5.688   2.131   0.015  0.00  0.00    -0.388 OA
ATOM     28  H   UNL     1      -5.962   3.014  -0.288  0.00  0.00    +0.210 HD
ENDBRANCH  26  27
BRANCH  26  29
ATOM     29  C   UNL     1      -3.804   0.706   0.633  0.00  0.00    +0.188 C 
BRANCH  29  30
ATOM     30  O   UNL     1      -2.666   0.378   1.465  0.00  0.00    -0.392 OA
ATOM     31  H   UNL     1      -1.849   0.591   0.972  0.00  0.00    +0.210 HD
ENDBRANCH  29  30
ENDBRANCH  26  29
ENDBRANCH  25  26
ENDBRANCH  23  25
ENDBRANCH   4  21
BRANCH   7  32
ATOM     32  C   UNL     1       1.657   7.894  -0.138  0.00  0.00    +0.246 C 
ATOM     33  O   UNL     1       1.134   8.949  -0.136  0.00  0.00    -0.270 OA
ATOM     34  N   UNL     1       3.071   8.021  -0.243  0.00  0.00    -0.309 N 
ATOM     35  H   UNL     1       3.297   8.942   0.149  0.00  0.00    +0.149 HD
BRANCH  34  36
ATOM     36  C   UNL     1       3.987   6.972   0.003  0.00  0.00    +0.138 C 
BRANCH  36  37
ATOM     37  C   UNL     1       5.060   6.183  -0.800  0.00  0.00    +0.157 C 
BRANCH  37  38
ATOM     38  O   UNL     1       6.187   7.029  -0.697  0.00  0.00    -0.388 OA
ATOM     39  H   UNL     1       5.823   7.924  -0.558  0.00  0.00    +0.210 HD
ENDBRANCH  37  38
BRANCH  37  40
ATOM     40  C   UNL     1       5.566   4.637  -0.493  0.00  0.00    +0.188 C 
BRANCH  40  41
ATOM     41  O   UNL     1       4.691   3.558  -0.861  0.00  0.00    -0.392 OA
ATOM     42  H   UNL     1       3.858   3.599  -0.378  0.00  0.00    +0.210 HD
ENDBRANCH  40  41
ENDBRANCH  37  40
ENDBRANCH  36  37
ENDBRANCH  34  36
ENDBRANCH   7  32
TORSDOF 18
