REMARK  Name = 
REMARK  14 active torsions:
REMARK  status: ('A' for Active; 'I' for Inactive)
REMARK    1  A    between atoms: C_1  and  C_2
REMARK    2  A    between atoms: C_2  and  O_3
REMARK    3  A    between atoms: O_3  and  C_4
REMARK    4  A    between atoms: C_4  and  C_6
REMARK    5  A    between atoms: C_6  and  C_7
REMARK    6  A    between atoms: C_7  and  C_8
REMARK    7  A    between atoms: C_8  and  C_9
REMARK    8  A    between atoms: C_9  and  C_10
REMARK    9  A    between atoms: C_10  and  C_11
REMARK   10  A    between atoms: C_11  and  C_12
REMARK   11  A    between atoms: C_12  and  C_13
REMARK   12  A    between atoms: C_13  and  C_14
REMARK   13  A    between atoms: C_14  and  C_15
REMARK   14  A    between atoms: C_14  and  C_16
REMARK                            x       y       z     vdW  Elec       q    Type
REMARK                         _______ _______ _______ _____ _____    ______ ____
ROOT
ATOM      1  C   UNL     1       0.384   6.860  -2.379  0.00  0.00    +0.000 C 
ENDROOT
BRANCH   1   2
ATOM      2  C   UNL     1       0.867   6.582  -0.945  0.00  0.00    +0.000 C 
BRANCH   2   3
ATOM      3  C   UNL     1       0.348   5.223  -0.465  0.00  0.00    +0.000 C 
BRANCH   3   4
ATOM      4  C   UNL     1       0.841   4.119  -1.407  0.00  0.00    +0.001 C 
BRANCH   4   5
ATOM      5  C   UNL     1       2.368   4.019  -1.370  0.00  0.00    +0.011 C 
BRANCH   5   6
ATOM      6  C   UNL     1       2.900   3.772   0.042  0.00  0.00    +0.120 C 
BRANCH   6   7
ATOM      7  C   UNL     1       2.492   2.429   0.598  0.00  0.00    +0.307 C 
ATOM      8  O   UNL     1       3.308   1.576   0.938  0.00  0.00    -0.251 OA
BRANCH   7   9
ATOM      9  O   UNL     1       1.144   2.291   0.683  0.00  0.00    -0.465 OA
BRANCH   9  11
ATOM     10  C   UNL     1       0.995  -0.092   0.069  0.00  0.00    +0.048 C 
ATOM     11  C   UNL     1       0.606   1.008   1.044  0.00  0.00    +0.229 C 
ENDBRANCH   9  11
ENDBRANCH   7   9
ENDBRANCH   6   7
ENDBRANCH   5   6
ENDBRANCH   4   5
ENDBRANCH   3   4
ENDBRANCH   2   3
ENDBRANCH   1   2
BRANCH   1  12
ATOM     12  C   UNL     1      -1.143   6.834  -2.465  0.00  0.00    +0.001 C 
BRANCH  12  13
ATOM     13  C   UNL     1      -1.721   7.900  -1.558  0.00  0.00    +0.008 C 
BRANCH  13  14
ATOM     14  C   UNL     1      -1.285   9.325  -1.866  0.00  0.00    +0.017 C 
ATOM     15  C   UNL     1      -1.723   9.646  -3.307  0.00  0.00    +0.012 C 
BRANCH  14  16
ATOM     16  C   UNL     1      -1.738  10.355  -0.834  0.00  0.00    -0.031 A 
ATOM     17  C   UNL     1      -1.380  11.690  -1.157  0.00  0.00    +0.005 A 
ATOM     18  C   UNL     1      -1.645  12.757  -0.305  0.00  0.00    +0.000 A 
ATOM     19  C   UNL     1      -2.234  12.519   0.923  0.00  0.00    +0.001 A 
ATOM     20  C   UNL     1      -2.584  11.226   1.281  0.00  0.00    +0.014 A 
ATOM     21  C   UNL     1      -2.367  10.144   0.418  0.00  0.00    +0.017 A 
ATOM     22  I   UNL     1      -3.161   8.363   1.320  0.00  0.00    -0.044 I 
ENDBRANCH  14  16
ENDBRANCH  13  14
ENDBRANCH  12  13
ENDBRANCH   1  12
TORSDOF 12
