REMARK  Name = 
REMARK  10 active torsions:
REMARK  status: ('A' for Active; 'I' for Inactive)
REMARK    1  A    between atoms: C_9  and  O_11
REMARK    2  A    between atoms: O_11  and  C_12
REMARK    3  A    between atoms: C_12  and  C_14
REMARK    4  A    between atoms: C_14  and  C_15
REMARK    5  A    between atoms: C_14  and  C_17
REMARK    6  A    between atoms: C_15  and  O_16
REMARK    7  A    between atoms: N_23  and  C_24
REMARK    8  A    between atoms: N_23  and  C_25
REMARK    9  A    between atoms: C_25  and  C_26
REMARK   10  A    between atoms: C_25  and  C_27
REMARK                            x       y       z     vdW  Elec       q    Type
REMARK                         _______ _______ _______ _____ _____    ______ ____
ROOT
ATOM      1 BR   UNL     1      -1.369  -0.272   1.251  0.00  0.00    +0.000 Br
ENDROOT
TORSDOF 0
REMARK  Name = 
REMARK  10 active torsions:
REMARK  status: ('A' for Active; 'I' for Inactive)
REMARK    1  A    between atoms: C_9  and  O_11
REMARK    2  A    between atoms: O_11  and  C_12
REMARK    3  A    between atoms: C_12  and  C_14
REMARK    4  A    between atoms: C_14  and  C_15
REMARK    5  A    between atoms: C_14  and  C_17
REMARK    6  A    between atoms: C_15  and  O_16
REMARK    7  A    between atoms: N_23  and  C_24
REMARK    8  A    between atoms: N_23  and  C_25
REMARK    9  A    between atoms: C_25  and  C_26
REMARK   10  A    between atoms: C_25  and  C_27
REMARK                            x       y       z     vdW  Elec       q    Type
REMARK                         _______ _______ _______ _____ _____    ______ ____
ROOT
ATOM      1  O   UNL     1       4.757  -1.747  -1.518  0.00  0.00    -0.461 OA
ENDROOT
BRANCH   1   7
ATOM      2  C   UNL     1       1.890   0.048  -0.191  0.00  0.00    -0.062 C 
ATOM      3  C   UNL     1       2.423   1.182  -1.081  0.00  0.00    -0.016 C 
ATOM      4  C   UNL     1       3.636   1.677  -0.372  0.00  0.00    -0.016 C 
ATOM      5  C   UNL     1       3.856   0.679   0.833  0.00  0.00    -0.062 C 
ATOM      6  C   UNL     1       4.382  -0.729   0.658  0.00  0.00    +0.030 C 
ATOM      7  C   UNL     1       3.841  -1.690  -0.351  0.00  0.00    +0.173 C 
ATOM      8  C   UNL     1       2.411  -1.303  -0.768  0.00  0.00    +0.030 C 
ATOM      9  N   UNL     1       2.466   0.370   1.289  0.00  0.00    +0.384 N 
ATOM     10  C   UNL     1       1.893   1.682   1.901  0.00  0.00    -0.091 C 
BRANCH   9  11
ATOM     11  C   UNL     1       2.325  -0.742   2.509  0.00  0.00    -0.071 C 
ATOM     12  C   UNL     1       2.609  -2.244   2.234  0.00  0.00    -0.013 C 
ATOM     13  C   UNL     1       3.241  -0.333   3.698  0.00  0.00    -0.013 C 
ENDBRANCH   9  11
ENDBRANCH   1   7
BRANCH   1  14
ATOM     14  C   UNL     1       6.114  -1.762  -1.646  0.00  0.00    +0.317 C 
ATOM     15  O   UNL     1       6.567  -2.101  -2.775  0.00  0.00    -0.250 OA
BRANCH  14  16
ATOM     16  C   UNL     1       7.127  -1.210  -0.586  0.00  0.00    +0.153 C 
BRANCH  16  17
ATOM     17  C   UNL     1       7.120  -1.976   0.762  0.00  0.00    -0.032 A 
ATOM     18  C   UNL     1       6.945  -1.385   2.045  0.00  0.00    +0.004 A 
ATOM     19  C   UNL     1       6.847  -2.164   3.202  0.00  0.00    +0.000 A 
ATOM     20  C   UNL     1       6.998  -3.540   3.110  0.00  0.00    +0.000 A 
ATOM     21  C   UNL     1       7.198  -4.134   1.865  0.00  0.00    +0.000 A 
ATOM     22  C   UNL     1       7.224  -3.366   0.702  0.00  0.00    +0.004 A 
ENDBRANCH  16  17
BRANCH  16  23
ATOM     23  C   UNL     1       7.150   0.339  -0.540  0.00  0.00    +0.175 C 
BRANCH  23  24
ATOM     24  O   UNL     1       5.880   0.885  -0.575  0.00  0.00    -0.394 OA
ATOM     25  H   UNL     1       5.370   0.365  -1.233  0.00  0.00    +0.209 HD
ENDBRANCH  23  24
ENDBRANCH  16  23
ENDBRANCH  14  16
ENDBRANCH   1  14
TORSDOF 7
