REMARK  Name = 
REMARK  8 active torsions:
REMARK  status: ('A' for Active; 'I' for Inactive)
REMARK    1  A    between atoms: C_1  and  C_2
REMARK    2  A    between atoms: C_2  and  C_3
REMARK    3  A    between atoms: C_3  and  C_4
REMARK    4  A    between atoms: C_4  and  C_5
REMARK    5  A    between atoms: N_14  and  C_15
REMARK    6  A    between atoms: C_15  and  C_16
REMARK    7  A    between atoms: C_19  and  C_22
REMARK    8  A    between atoms: C_27  and  C_28
REMARK                            x       y       z     vdW  Elec       q    Type
REMARK                         _______ _______ _______ _____ _____    ______ ____
ROOT
ATOM      1  C   UNL     1      -0.532  -0.399  -1.402  0.00  0.00    -0.030 A 
ATOM      2  C   UNL     1      -1.248  -1.198  -0.497  0.00  0.00    +0.006 A 
ATOM      3  C   UNL     1      -2.461  -0.752   0.034  0.00  0.00    +0.009 A 
ATOM      4  C   UNL     1      -2.982   0.496  -0.341  0.00  0.00    -0.017 A 
ATOM      5  C   UNL     1      -2.263   1.300  -1.237  0.00  0.00    +0.009 A 
ATOM      6  C   UNL     1      -1.049   0.855  -1.767  0.00  0.00    +0.006 A 
ENDROOT
BRANCH   4   7
ATOM      7  C   UNL     1      -4.253   0.981   0.243  0.00  0.00    -0.007 A 
ATOM      8  C   UNL     1      -4.222   2.162   1.005  0.00  0.00    +0.009 A 
ATOM      9  C   UNL     1      -5.369   2.620   1.654  0.00  0.00    +0.001 A 
ATOM     10  C   UNL     1      -6.560   1.904   1.555  0.00  0.00    +0.001 A 
ATOM     11  C   UNL     1      -6.614   0.737   0.792  0.00  0.00    +0.012 A 
ATOM     12  C   UNL     1      -5.475   0.266   0.113  0.00  0.00    +0.030 A 
BRANCH  12  13
ATOM     13  C   UNL     1      -5.613  -0.932  -0.751  0.00  0.00    +0.205 A 
ATOM     14  N   UNL     1      -6.579  -1.861  -0.606  0.00  0.00    -0.133 NA
ATOM     15  N   UNL     1      -6.361  -2.711  -1.594  0.00  0.00    -0.176 N 
ATOM     16  N   UNL     1      -5.325  -2.329  -2.320  0.00  0.00    -0.049 NA
ATOM     17  N   UNL     1      -4.835  -1.208  -1.818  0.00  0.00    -0.108 NA
ATOM     18  H   UNL     1      -6.933  -3.564  -1.779  0.00  0.00    +0.214 HD
ENDBRANCH  12  13
ENDBRANCH   4   7
BRANCH   1  19
ATOM     19  C   UNL     1       0.801  -0.861  -1.928  0.00  0.00    +0.150 C 
BRANCH  19  29
ATOM     20  C   UNL     1       2.320   0.469  -0.308  0.00  0.00    +0.100 C 
ATOM     21  N   UNL     1       2.817   0.323   0.883  0.00  0.00    -0.257 NA
ATOM     22  C   UNL     1       2.728  -1.076   1.299  0.00  0.00    +0.139 C 
ATOM     23  C   UNL     1       4.100  -1.665   1.608  0.00  0.00    +0.040 C 
ATOM     24  C   UNL     1       3.858  -2.729   2.675  0.00  0.00    +0.003 C 
ATOM     25  C   UNL     1       2.460  -2.485   3.251  0.00  0.00    +0.003 C 
ATOM     26  C   UNL     1       1.910  -1.235   2.574  0.00  0.00    +0.040 C 
ATOM     27  C   UNL     1       2.078  -1.709   0.115  0.00  0.00    +0.249 C 
ATOM     28  O   UNL     1       1.769  -2.927   0.012  0.00  0.00    -0.273 OA
ATOM     29  N   UNL     1       1.827  -0.741  -0.891  0.00  0.00    -0.253 N 
BRANCH  20  30
ATOM     30  C   UNL     1       2.284   1.810  -0.989  0.00  0.00    +0.071 C 
BRANCH  30  31
ATOM     31  C   UNL     1       3.673   2.459  -1.057  0.00  0.00    +0.007 C 
BRANCH  31  33
ATOM     32  C   UNL     1       5.997   2.352  -2.036  0.00  0.00    +0.004 C 
ATOM     33  C   UNL     1       4.639   1.663  -1.946  0.00  0.00    -0.003 C 
ENDBRANCH  31  33
ENDBRANCH  30  31
ENDBRANCH  20  30
ENDBRANCH  19  29
ENDBRANCH   1  19
TORSDOF 7
