REMARK  Name = 
REMARK  8 active torsions:
REMARK  status: ('A' for Active; 'I' for Inactive)
REMARK    1  A    between atoms: C_1  and  C_2
REMARK    2  A    between atoms: C_2  and  C_3
REMARK    3  A    between atoms: C_15  and  O_16
REMARK    4  A    between atoms: C_15  and  C_17
REMARK    5  A    between atoms: C_17  and  C_18
REMARK    6  A    between atoms: C_26  and  O_27
REMARK    7  A    between atoms: O_27  and  C_28
REMARK    8  A    between atoms: C_33  and  N_36
REMARK                            x       y       z     vdW  Elec       q    Type
REMARK                         _______ _______ _______ _____ _____    ______ ____
ROOT
ATOM      1  C   UNL     1       2.418  -1.467  -1.160  0.00  0.00    -0.031 A 
ATOM      2  C   UNL     1       3.771  -1.129  -0.993  0.00  0.00    +0.003 A 
ATOM      3  C   UNL     1       5.015  -1.968  -1.148  0.00  0.00    +0.163 C 
ATOM      4  N   UNL     1       6.082  -1.031  -0.774  0.00  0.00    -0.302 N 
ATOM      5  C   UNL     1       5.564   0.173  -0.460  0.00  0.00    +0.071 A 
ATOM      6  C   UNL     1       6.363   1.219  -0.016  0.00  0.00    +0.035 A 
ATOM      7  C   UNL     1       7.752   1.007   0.088  0.00  0.00    +0.008 A 
ATOM      8  C   UNL     1       8.288  -0.262  -0.261  0.00  0.00    +0.061 A 
ATOM      9  C   UNL     1       9.754  -0.546  -0.056  0.00  0.00    +0.273 C 
ATOM     10  O   UNL     1      10.540   0.639  -0.139  0.00  0.00    -0.457 OA
ATOM     11  C   UNL     1      10.099   1.873   0.336  0.00  0.00    +0.344 C 
ATOM     12  O   UNL     1      10.935   2.806   0.483  0.00  0.00    -0.247 OA
ATOM     13  C   UNL     1       8.636   2.120   0.645  0.00  0.00    +0.188 C 
ATOM     14  C   UNL     1       7.415  -1.290  -0.684  0.00  0.00    +0.259 A 
ATOM     15  O   UNL     1       7.855  -2.438  -0.962  0.00  0.00    -0.267 OA
ATOM     16  C   UNL     1       4.132   0.133  -0.594  0.00  0.00    +0.093 A 
ATOM     17  N   UNL     1       3.233   1.109  -0.345  0.00  0.00    -0.245 NA
ATOM     18  C   UNL     1       1.903   0.850  -0.489  0.00  0.00    +0.072 A 
ATOM     19  C   UNL     1       1.451  -0.450  -0.880  0.00  0.00    +0.007 A 
ATOM     20  C   UNL     1       0.060  -0.676  -0.966  0.00  0.00    +0.056 A 
ATOM     21  C   UNL     1      -0.853   0.356  -0.682  0.00  0.00    +0.134 A 
ATOM     22  C   UNL     1      -0.384   1.628  -0.351  0.00  0.00    +0.048 A 
ATOM     23  C   UNL     1       0.984   1.871  -0.241  0.00  0.00    +0.032 A 
ENDROOT
BRANCH   1  25
ATOM     24  C   UNL     1       1.672  -3.729  -0.369  0.00  0.00    +0.009 C 
ATOM     25  C   UNL     1       2.046  -2.876  -1.579  0.00  0.00    +0.033 C 
ENDBRANCH   1  25
BRANCH  13  26
ATOM     26  O   UNL     1       8.259   3.346   0.058  0.00  0.00    -0.373 OA
ATOM     27  H   UNL     1       8.424   3.281  -0.923  0.00  0.00    +0.211 HD
ENDBRANCH  13  26
BRANCH  13  28
ATOM     28  C   UNL     1       8.432   2.258   2.177  0.00  0.00    +0.048 C 
ATOM     29  C   UNL     1       8.759   0.993   2.976  0.00  0.00    +0.007 C 
ENDBRANCH  13  28
BRANCH  21  30
ATOM     30  O   UNL     1      -2.237   0.154  -0.747  0.00  0.00    -0.411 OA
BRANCH  30  31
ATOM     31  C   UNL     1      -2.903  -0.983  -0.268  0.00  0.00    +0.408 C 
ATOM     32  O   UNL     1      -2.287  -1.833   0.432  0.00  0.00    -0.226 OA
ATOM     33  N   UNL     1      -4.308  -1.150  -0.531  0.00  0.00    -0.267 N 
ATOM     34  C   UNL     1      -5.170  -1.924   0.360  0.00  0.00    +0.112 C 
ATOM     35  C   UNL     1      -6.144  -0.973   1.061  0.00  0.00    +0.038 C 
ATOM     36  C   UNL     1      -6.961  -0.108   0.053  0.00  0.00    +0.060 C 
ATOM     37  C   UNL     1      -5.977   0.602  -0.926  0.00  0.00    +0.038 C 
ATOM     38  C   UNL     1      -4.982  -0.372  -1.567  0.00  0.00    +0.112 C 
BRANCH  36  39
ATOM     39  N   UNL     1      -7.831   0.850   0.811  0.00  0.00    -0.299 NA
ATOM     40  C   UNL     1      -8.480   1.916  -0.002  0.00  0.00    +0.084 C 
ATOM     41  C   UNL     1      -9.788   1.433  -0.641  0.00  0.00    +0.015 C 
ATOM     42  C   UNL     1     -10.812   0.995   0.424  0.00  0.00    +0.002 C 
ATOM     43  C   UNL     1     -10.176   0.809   1.810  0.00  0.00    +0.015 C 
ATOM     44  C   UNL     1      -8.803   0.128   1.689  0.00  0.00    +0.084 C 
ENDBRANCH  36  39
ENDBRANCH  30  31
ENDBRANCH  21  30
TORSDOF 6
