REMARK  Name = 
REMARK  5 active torsions:
REMARK  status: ('A' for Active; 'I' for Inactive)
REMARK    1  A    between atoms: C_1  and  C_2
REMARK    2  A    between atoms: C_4  and  C_7
REMARK    3  A    between atoms: N_9  and  N_10
REMARK    4  A    between atoms: N_10  and  C_11
REMARK    5  A    between atoms: C_11  and  C_12
REMARK                            x       y       z     vdW  Elec       q    Type
REMARK                         _______ _______ _______ _____ _____    ______ ____
ROOT
ATOM      1  C   UNL     1       1.231  -1.422  -0.010  0.00  0.00    +0.279 C 
ATOM      2  O   UNL     1       1.399  -2.425  -0.756  0.00  0.00    -0.267 OA
ATOM      3  N   UNL     1       0.029  -1.299   0.759  0.00  0.00    -0.245 N 
ATOM      4  H   UNL     1      -0.067  -0.519   1.450  0.00  0.00    +0.169 HD
ENDROOT
BRANCH   1   8
ATOM      5  C   UNL     1       5.392   1.302  -0.678  0.00  0.00    +0.089 C 
ATOM      6  C   UNL     1       4.069   0.786  -0.223  0.00  0.00    +0.135 A 
ATOM      7  C   UNL     1       3.471  -0.389  -0.623  0.00  0.00    +0.080 A 
ATOM      8  C   UNL     1       2.272  -0.385   0.061  0.00  0.00    +0.169 A 
ATOM      9  N   UNL     1       2.180   0.731   0.812  0.00  0.00    -0.073 NA
ATOM     10  O   UNL     1       3.273   1.409   0.615  0.00  0.00    -0.359 OA
ENDBRANCH   1   8
BRANCH   3  11
ATOM     11  N   UNL     1      -1.009  -2.242   0.634  0.00  0.00    -0.236 NA
ATOM     12  H   UNL     1      -1.583  -2.208   1.510  0.00  0.00    +0.145 HD
BRANCH  11  13
ATOM     13  C   UNL     1      -1.863  -1.872  -0.502  0.00  0.00    +0.137 C 
BRANCH  13  14
ATOM     14  C   UNL     1      -2.549  -0.544  -0.280  0.00  0.00    -0.032 A 
ATOM     15  C   UNL     1      -3.723  -0.474   0.487  0.00  0.00    +0.005 A 
ATOM     16  C   UNL     1      -4.340   0.759   0.719  0.00  0.00    +0.000 A 
ATOM     17  C   UNL     1      -3.785   1.930   0.194  0.00  0.00    +0.000 A 
ATOM     18  C   UNL     1      -2.611   1.869  -0.562  0.00  0.00    +0.000 A 
ATOM     19  C   UNL     1      -1.992   0.638  -0.797  0.00  0.00    +0.005 A 
ENDBRANCH  13  14
ENDBRANCH  11  13
ENDBRANCH   3  11
TORSDOF 4
