REMARK  Name = 
REMARK  11 active torsions:
REMARK  status: ('A' for Active; 'I' for Inactive)
REMARK    1  A    between atoms: C_1  and  C_2
REMARK    2  A    between atoms: C_2  and  C_3
REMARK    3  A    between atoms: C_3  and  N_4
REMARK    4  A    between atoms: C_3  and  C_8
REMARK    5  A    between atoms: N_4  and  C_5
REMARK    6  A    between atoms: C_5  and  C_6
REMARK    7  A    between atoms: C_5  and  C_7
REMARK    8  A    between atoms: C_8  and  O_9
REMARK    9  A    between atoms: C_8  and  C_10
REMARK   10  A    between atoms: C_12  and  O_13
REMARK   11  A    between atoms: C_14  and  O_15
REMARK                            x       y       z     vdW  Elec       q    Type
REMARK                         _______ _______ _______ _____ _____    ______ ____
ROOT
ATOM      1  C   UNL     1      -0.130  -0.064   0.767  0.00  0.00    +0.161 C 
ENDROOT
BRANCH   1   2
ATOM      2  C   UNL     1      -1.503   0.402   0.318  0.00  0.00    -0.014 A 
ATOM      3  C   UNL     1      -2.605  -0.469   0.368  0.00  0.00    +0.055 A 
ATOM      4  C   UNL     1      -3.872  -0.040  -0.043  0.00  0.00    +0.159 A 
ATOM      5  C   UNL     1      -4.050   1.276  -0.501  0.00  0.00    +0.158 A 
ATOM      6  C   UNL     1      -2.957   2.152  -0.540  0.00  0.00    +0.049 A 
ATOM      7  C   UNL     1      -1.694   1.721  -0.129  0.00  0.00    +0.010 A 
BRANCH   4   8
ATOM      8  O   UNL     1      -4.940  -0.935   0.012  0.00  0.00    -0.503 OA
ATOM      9  H   UNL     1      -5.876  -0.673  -0.274  0.00  0.00    +0.292 HD
ENDBRANCH   4   8
BRANCH   5  10
ATOM     10  O   UNL     1      -5.310   1.709  -0.914  0.00  0.00    -0.503 OA
ATOM     11  H   UNL     1      -5.463   2.653  -1.247  0.00  0.00    +0.292 HD
ENDBRANCH   5  10
ENDBRANCH   1   2
BRANCH   1  12
ATOM     12  O   UNL     1       0.282   0.772   1.817  0.00  0.00    -0.386 OA
ATOM     13  H   UNL     1      -0.226   0.495   2.624  0.00  0.00    +0.210 HD
ENDBRANCH   1  12
BRANCH   1  14
ATOM     14  C   UNL     1       0.931  -0.035  -0.383  0.00  0.00    +0.087 C 
BRANCH  14  16
ATOM     15  C   UNL     1       0.015  -2.063  -1.694  0.00  0.00    +0.005 C 
ATOM     16  C   UNL     1       0.372  -0.575  -1.730  0.00  0.00    +0.018 C 
ENDBRANCH  14  16
BRANCH  14  17
ATOM     17  N   UNL     1       2.151  -0.808  -0.038  0.00  0.00    -0.308 NA
ATOM     18  H   UNL     1       2.774  -0.839  -0.881  0.00  0.00    +0.123 HD
BRANCH  17  19
ATOM     19  C   UNL     1       2.960  -0.306   1.093  0.00  0.00    +0.048 C 
ATOM     20  C   UNL     1       4.116  -1.279   1.346  0.00  0.00    +0.023 C 
ATOM     21  C   UNL     1       3.513   1.108   0.840  0.00  0.00    +0.023 C 
ENDBRANCH  17  19
ENDBRANCH  14  17
ENDBRANCH   1  14
TORSDOF 8
