REMARK  Name = 
REMARK  3 active torsions:
REMARK  status: ('A' for Active; 'I' for Inactive)
REMARK    1  A    between atoms: C_2  and  O_4
REMARK    2  A    between atoms: O_4  and  C_5
REMARK    3  A    between atoms: C_5  and  C_7
REMARK                            x       y       z     vdW  Elec       q    Type
REMARK                         _______ _______ _______ _____ _____    ______ ____
ROOT
ATOM      1  C   UNL     1       0.505   0.072  -0.239  0.00  0.00    +0.318 C 
ATOM      2 CL   UNL     1       1.400   1.600  -0.499  0.00  0.00    -0.081 Cl
ENDROOT
BRANCH   1   3
ATOM      3  C   UNL     1       1.439  -0.970   0.375  0.00  0.00    +0.430 C 
ATOM      4  F   UNL     1       1.915  -0.526   1.596  0.00  0.00    -0.167 F 
ATOM      5  F   UNL     1       0.752  -2.156   0.564  0.00  0.00    -0.167 F 
ATOM      6  F   UNL     1       2.509  -1.205  -0.471  0.00  0.00    -0.167 F 
ENDBRANCH   1   3
BRANCH   1   7
ATOM      7  O   UNL     1      -0.577   0.299   0.646  0.00  0.00    -0.294 OA
BRANCH   7   9
ATOM      8  F   UNL     1      -2.628   1.251   0.839  0.00  0.00    -0.178 F 
ATOM      9  C   UNL     1      -1.716   0.738  -0.063  0.00  0.00    +0.484 C 
ATOM     10  F   UNL     1      -2.303  -0.327  -0.725  0.00  0.00    -0.178 F 
ENDBRANCH   7   9
ENDBRANCH   1   7
TORSDOF 3
