REMARK  Name = 
REMARK  8 active torsions:
REMARK  status: ('A' for Active; 'I' for Inactive)
REMARK    1  A    between atoms: C_1  and  C_2
REMARK    2  A    between atoms: C_2  and  C_3
REMARK    3  A    between atoms: C_2  and  O_4
REMARK    4  A    between atoms: O_4  and  P_5
REMARK    5  A    between atoms: P_5  and  O_8
REMARK    6  A    between atoms: O_8  and  C_9
REMARK    7  A    between atoms: C_9  and  C_10
REMARK    8  A    between atoms: C_9  and  C_11
REMARK                            x       y       z     vdW  Elec       q    Type
REMARK                         _______ _______ _______ _____ _____    ______ ____
ROOT
ATOM      1  P   UNL     1      -0.219   0.269  -1.811  0.00  0.00    +0.516 P 
ATOM      2  F   UNL     1      -1.398  -0.466  -2.747  0.00  0.00    -0.133 F 
ATOM      3  O   UNL     1       0.589   1.191  -2.696  0.00  0.00    -0.223 OA
ENDROOT
BRANCH   1   4
ATOM      4  O   UNL     1      -0.951   1.185  -0.568  0.00  0.00    -0.281 OA
BRANCH   4   6
ATOM      5  C   UNL     1      -3.224   0.499  -0.166  0.00  0.00    +0.038 C 
ATOM      6  C   UNL     1      -1.755   0.349   0.242  0.00  0.00    +0.124 C 
ATOM      7  C   UNL     1      -1.574   0.775   1.699  0.00  0.00    +0.038 C 
ENDBRANCH   4   6
ENDBRANCH   1   4
BRANCH   1   8
ATOM      8  O   UNL     1       0.793  -0.942  -1.154  0.00  0.00    -0.281 OA
BRANCH   8   9
ATOM      9  C   UNL     1       1.776  -0.361  -0.319  0.00  0.00    +0.124 C 
ATOM     10  C   UNL     1       3.105  -0.274  -1.075  0.00  0.00    +0.038 C 
ATOM     11  C   UNL     1       1.938  -1.246   0.917  0.00  0.00    +0.038 C 
ENDBRANCH   8   9
ENDBRANCH   1   8
TORSDOF 4
