REMARK  Name = 
REMARK  8 active torsions:
REMARK  status: ('A' for Active; 'I' for Inactive)
REMARK    1  A    between atoms: C_1  and  N_2
REMARK    2  A    between atoms: N_2  and  C_3
REMARK    3  A    between atoms: C_3  and  C_4
REMARK    4  A    between atoms: C_3  and  C_5
REMARK    5  A    between atoms: C_5  and  C_6
REMARK    6  A    between atoms: C_6  and  C_7
REMARK    7  A    between atoms: C_8  and  C_9
REMARK    8  A    between atoms: C_8  and  C_10
REMARK                            x       y       z     vdW  Elec       q    Type
REMARK                         _______ _______ _______ _____ _____    ______ ____
ROOT
ATOM      1  C   UNL     1       0.467   0.906  -0.044  0.00  0.00    +0.022 C 
ENDROOT
BRANCH   1   2
ATOM      2  C   UNL     1       1.728   0.143   0.439  0.00  0.00    +0.051 C 
ATOM      3  C   UNL     1       1.472  -1.372   0.470  0.00  0.00    +0.024 C 
BRANCH   2   5
ATOM      4  C   UNL     1       4.150   0.347   0.247  0.00  0.00    +0.101 C 
ATOM      5  N   UNL     1       2.868   0.425  -0.460  0.00  0.00    -0.316 NA
ATOM      6  H   UNL     1       2.800   1.402  -0.832  0.00  0.00    +0.122 HD
ENDBRANCH   2   5
ENDBRANCH   1   2
BRANCH   1   7
ATOM      7  C   UNL     1      -0.752   0.767   0.893  0.00  0.00    +0.028 C 
BRANCH   7   8
ATOM      8  C   UNL     1      -1.673  -0.356   0.475  0.00  0.00    -0.028 C 
ATOM      9  C   UNL     1      -2.586  -0.265  -0.517  0.00  0.00    -0.080 C 
ATOM     10  C   UNL     1      -2.806   1.016  -1.290  0.00  0.00    +0.038 C 
ATOM     11  C   UNL     1      -3.426  -1.475  -0.833  0.00  0.00    +0.038 C 
ENDBRANCH   7   8
ENDBRANCH   1   7
TORSDOF 4
