REMARK  Name = 
REMARK  2 active torsions:
REMARK  status: ('A' for Active; 'I' for Inactive)
REMARK    1  A    between atoms: N_1  and  N_2
REMARK    2  A    between atoms: C_3  and  C_5
REMARK                            x       y       z     vdW  Elec       q    Type
REMARK                         _______ _______ _______ _____ _____    ______ ____
ROOT
ATOM      1  N   UNL     1       2.094   0.284   0.423  0.00  0.00    -0.250 N 
ATOM      2  C   UNL     1       1.051  -0.664   0.153  0.00  0.00    +0.257 C 
ATOM      3  O   UNL     1       1.354  -1.870  -0.058  0.00  0.00    -0.269 OA
ATOM      4  H   UNL     1       1.859   1.254   0.730  0.00  0.00    +0.169 HD
ENDROOT
BRANCH   2   5
ATOM      5  C   UNL     1      -0.376  -0.258   0.135  0.00  0.00    +0.041 A 
ATOM      6  C   UNL     1      -1.381  -1.214   0.365  0.00  0.00    +0.033 A 
ATOM      7  C   UNL     1      -2.723  -0.828   0.342  0.00  0.00    +0.111 A 
ATOM      8  N   UNL     1      -3.057   0.464   0.090  0.00  0.00    -0.263 NA
ATOM      9  C   UNL     1      -2.111   1.410  -0.147  0.00  0.00    +0.111 A 
ATOM     10  C   UNL     1      -0.756   1.068  -0.133  0.00  0.00    +0.033 A 
ENDBRANCH   2   5
BRANCH   1  11
ATOM     11  N   UNL     1       3.443  -0.089   0.303  0.00  0.00    -0.254 NA
ATOM     12  H   UNL     1       3.645  -0.771   1.070  0.00  0.00    +0.140 HD
ATOM     13  H   UNL     1       4.025   0.757   0.498  0.00  0.00    +0.140 HD
ENDBRANCH   1  11
TORSDOF 2
