REMARK  Name = 
REMARK  9 active torsions:
REMARK  status: ('A' for Active; 'I' for Inactive)
REMARK    1  A    between atoms: C_1  and  C_2
REMARK    2  A    between atoms: C_2  and  C_3
REMARK    3  A    between atoms: C_2  and  N_4
REMARK    4  A    between atoms: N_4  and  C_5
REMARK    5  A    between atoms: C_5  and  C_6
REMARK    6  A    between atoms: C_6  and  O_7
REMARK    7  A    between atoms: C_6  and  C_8
REMARK    8  A    between atoms: C_10  and  O_11
REMARK    9  A    between atoms: C_12  and  O_13
REMARK                            x       y       z     vdW  Elec       q    Type
REMARK                         _______ _______ _______ _____ _____    ______ ____
ROOT
ATOM      1  C   UNL     1      -1.598  -0.599  -0.342  0.00  0.00    -0.014 A 
ATOM      2  C   UNL     1      -2.098  -0.551   0.972  0.00  0.00    +0.055 A 
ATOM      3  C   UNL     1      -3.378  -0.049   1.230  0.00  0.00    +0.159 A 
ATOM      4  C   UNL     1      -4.171   0.422   0.169  0.00  0.00    +0.158 A 
ATOM      5  C   UNL     1      -3.671   0.388  -1.139  0.00  0.00    +0.049 A 
ATOM      6  C   UNL     1      -2.392  -0.114  -1.393  0.00  0.00    +0.010 A 
ENDROOT
BRANCH   3   7
ATOM      7  O   UNL     1      -3.844  -0.023   2.544  0.00  0.00    -0.503 OA
ATOM      8  H   UNL     1      -4.762   0.332   2.783  0.00  0.00    +0.292 HD
ENDBRANCH   3   7
BRANCH   4   9
ATOM      9  O   UNL     1      -5.448   0.923   0.419  0.00  0.00    -0.503 OA
ATOM     10  H   UNL     1      -6.038   1.269  -0.329  0.00  0.00    +0.292 HD
ENDBRANCH   4   9
BRANCH   1  11
ATOM     11  C   UNL     1      -0.201  -1.113  -0.618  0.00  0.00    +0.158 C 
BRANCH  11  12
ATOM     12  O   UNL     1       0.043  -2.285   0.116  0.00  0.00    -0.386 OA
ATOM     13  H   UNL     1      -0.488  -3.006  -0.312  0.00  0.00    +0.210 HD
ENDBRANCH  11  12
BRANCH  11  14
ATOM     14  C   UNL     1       0.837  -0.048  -0.245  0.00  0.00    +0.117 C 
BRANCH  14  15
ATOM     15  N   UNL     1       2.188  -0.528  -0.573  0.00  0.00    -0.311 NA
ATOM     16  H   UNL     1       2.293  -0.562  -1.615  0.00  0.00    +0.122 HD
BRANCH  15  18
ATOM     17  C   UNL     1       4.563  -0.449   0.000  0.00  0.00    +0.023 C 
ATOM     18  C   UNL     1       3.243   0.326   0.004  0.00  0.00    +0.048 C 
ATOM     19  C   UNL     1       3.402   1.646  -0.769  0.00  0.00    +0.023 C 
ENDBRANCH  15  18
ENDBRANCH  14  15
ENDBRANCH  11  14
ENDBRANCH   1  11
TORSDOF 7
