REMARK  Name = 
REMARK  13 active torsions:
REMARK  status: ('A' for Active; 'I' for Inactive)
REMARK    1  A    between atoms: C_1  and  C_2
REMARK    2  A    between atoms: C_2  and  C_3
REMARK    3  A    between atoms: C_2  and  N_4
REMARK    4  A    between atoms: N_4  and  C_5
REMARK    5  A    between atoms: N_4  and  C_6
REMARK    6  A    between atoms: N_4  and  C_24
REMARK    7  A    between atoms: C_6  and  C_7
REMARK    8  A    between atoms: C_7  and  C_8
REMARK    9  A    between atoms: C_8  and  C_9
REMARK   10  A    between atoms: C_8  and  C_12
REMARK   11  A    between atoms: C_8  and  C_18
REMARK   12  A    between atoms: C_24  and  C_25
REMARK   13  A    between atoms: C_24  and  C_26
REMARK                            x       y       z     vdW  Elec       q    Type
REMARK                         _______ _______ _______ _____ _____    ______ ____
ROOT
ATOM      1  C   UNL     1      -1.891   0.329   0.761  0.00  0.00    +0.095 C 
ENDROOT
BRANCH   1   2
ATOM      2  C   UNL     1      -2.263   1.503  -0.177  0.00  0.00    -0.028 A 
ATOM      3  C   UNL     1      -1.420   2.621  -0.387  0.00  0.00    +0.005 A 
ATOM      4  C   UNL     1      -1.825   3.683  -1.202  0.00  0.00    +0.000 A 
ATOM      5  C   UNL     1      -3.083   3.670  -1.803  0.00  0.00    +0.000 A 
ATOM      6  C   UNL     1      -3.947   2.600  -1.582  0.00  0.00    +0.000 A 
ATOM      7  C   UNL     1      -3.550   1.534  -0.770  0.00  0.00    +0.005 A 
ENDBRANCH   1   2
BRANCH   1   8
ATOM      8  C   UNL     1      -2.262  -1.041   0.141  0.00  0.00    -0.028 A 
ATOM      9  C   UNL     1      -2.251  -1.248  -1.259  0.00  0.00    +0.005 A 
ATOM     10  C   UNL     1      -2.508  -2.511  -1.798  0.00  0.00    +0.000 A 
ATOM     11  C   UNL     1      -2.752  -3.597  -0.959  0.00  0.00    +0.000 A 
ATOM     12  C   UNL     1      -2.719  -3.427   0.424  0.00  0.00    +0.000 A 
ATOM     13  C   UNL     1      -2.459  -2.168   0.971  0.00  0.00    +0.005 A 
ENDBRANCH   1   8
BRANCH   1  14
ATOM     14  C   UNL     1      -2.733   0.554   2.027  0.00  0.00    +0.225 C 
ATOM     15  N   UNL     1      -2.214   1.166   3.215  0.00  0.00    -0.328 N 
ATOM     16  O   UNL     1      -3.957   0.248   2.009  0.00  0.00    -0.275 OA
ATOM     17  H   UNL     1      -1.212   1.424   3.342  0.00  0.00    +0.145 HD
ATOM     18  H   UNL     1      -2.856   1.346   4.019  0.00  0.00    +0.145 HD
ENDBRANCH   1  14
BRANCH   1  19
ATOM     19  C   UNL     1      -0.360   0.259   1.113  0.00  0.00    +0.007 C 
BRANCH  19  20
ATOM     20  C   UNL     1       0.561  -0.125  -0.093  0.00  0.00    -0.073 C 
BRANCH  20  21
ATOM     21  N   UNL     1       2.056   0.064   0.079  0.00  0.00    +0.381 N 
ATOM     22  C   UNL     1       2.295   1.541   0.102  0.00  0.00    -0.091 C 
BRANCH  21  24
ATOM     23  C   UNL     1       4.199   0.025  -1.431  0.00  0.00    -0.013 C 
ATOM     24  C   UNL     1       2.796  -0.568  -1.111  0.00  0.00    -0.072 C 
ATOM     25  C   UNL     1       2.020  -0.542  -2.460  0.00  0.00    -0.013 C 
ENDBRANCH  21  24
BRANCH  21  26
ATOM     26  C   UNL     1       2.484  -0.548   1.412  0.00  0.00    -0.072 C 
ATOM     27  C   UNL     1       3.976  -0.393   1.782  0.00  0.00    -0.013 C 
ATOM     28  C   UNL     1       2.124  -2.051   1.593  0.00  0.00    -0.013 C 
ENDBRANCH  21  26
ENDBRANCH  20  21
ENDBRANCH  19  20
ENDBRANCH   1  19
TORSDOF 8
