REMARK  Name = 
REMARK  4 active torsions:
REMARK  status: ('A' for Active; 'I' for Inactive)
REMARK    1  A    between atoms: C_4  and  O_5
REMARK    2  A    between atoms: O_5  and  N_6
REMARK    3  A    between atoms: C_12  and  O_13
REMARK    4  A    between atoms: O_13  and  N_14
REMARK                            x       y       z     vdW  Elec       q    Type
REMARK                         _______ _______ _______ _____ _____    ______ ____
ROOT
ATOM      1  C   UNL     1      -0.246   0.610   0.910  0.00  0.00    +0.196 C 
ATOM      2  O   UNL     1      -0.300  -0.606   1.624  0.00  0.00    -0.366 OA
ATOM      3  C   UNL     1       0.965  -1.201   1.486  0.00  0.00    +0.210 C 
ATOM      4  C   UNL     1       1.527  -0.802   0.136  0.00  0.00    +0.265 C 
ATOM      5  C   UNL     1       0.831   0.511  -0.153  0.00  0.00    +0.196 C 
ATOM      6  O   UNL     1       0.243   0.498  -1.438  0.00  0.00    -0.366 OA
ATOM      7  C   UNL     1      -1.145   0.345  -1.261  0.00  0.00    +0.210 C 
ATOM      8  C   UNL     1      -1.509   0.847   0.122  0.00  0.00    +0.265 C 
ENDROOT
BRANCH   4   9
ATOM      9  O   UNL     1       2.942  -0.644   0.211  0.00  0.00    -0.343 OA
BRANCH   9  10
ATOM     10  N   UNL     1       3.714  -0.416  -0.911  0.00  0.00    +0.218 N 
ATOM     11  O   UNL     1       3.148  -0.371  -2.164  0.00  0.00    -0.090 OA
ATOM     12  O   UNL     1       4.946  -0.267  -0.788  0.00  0.00    -0.090 OA
ENDBRANCH   9  10
ENDBRANCH   4   9
BRANCH   8  13
ATOM     13  O   UNL     1      -2.618   0.134   0.669  0.00  0.00    -0.343 OA
BRANCH  13  14
ATOM     14  N   UNL     1      -3.904   0.301   0.195  0.00  0.00    +0.218 N 
ATOM     15  O   UNL     1      -4.180   1.207  -0.803  0.00  0.00    -0.090 OA
ATOM     16  O   UNL     1      -4.833  -0.364   0.695  0.00  0.00    -0.090 OA
ENDBRANCH  13  14
ENDBRANCH   8  13
TORSDOF 4
