REMARK  Name = 
REMARK  3 active torsions:
REMARK  status: ('A' for Active; 'I' for Inactive)
REMARK    1  A    between atoms: C_4  and  O_5
REMARK    2  A    between atoms: O_5  and  N_6
REMARK    3  A    between atoms: C_12  and  O_13
REMARK                            x       y       z     vdW  Elec       q    Type
REMARK                         _______ _______ _______ _____ _____    ______ ____
ROOT
ATOM      1  C   UNL     1      -0.922   0.814  -0.586  0.00  0.00    +0.181 C 
ATOM      2  O   UNL     1      -0.238   1.734   0.240  0.00  0.00    -0.367 OA
ATOM      3  C   UNL     1       0.969   1.126   0.631  0.00  0.00    +0.210 C 
ATOM      4  C   UNL     1       1.335   0.080  -0.402  0.00  0.00    +0.265 C 
ATOM      5  C   UNL     1      -0.006  -0.339  -0.951  0.00  0.00    +0.195 C 
ATOM      6  O   UNL     1      -0.478  -1.515  -0.330  0.00  0.00    -0.367 OA
ATOM      7  C   UNL     1      -1.848  -1.314  -0.092  0.00  0.00    +0.194 C 
ATOM      8  C   UNL     1      -2.067   0.163   0.162  0.00  0.00    +0.171 C 
ENDROOT
BRANCH   8   9
ATOM      9  O   UNL     1      -3.311   0.572  -0.341  0.00  0.00    -0.387 OA
ATOM     10  H   UNL     1      -3.460   1.493  -0.003  0.00  0.00    +0.210 HD
ENDBRANCH   8   9
BRANCH   4  11
ATOM     11  O   UNL     1       2.037  -1.018   0.180  0.00  0.00    -0.343 OA
BRANCH  11  12
ATOM     12  N   UNL     1       3.338  -0.904   0.626  0.00  0.00    +0.218 N 
ATOM     13  O   UNL     1       4.037   0.273   0.482  0.00  0.00    -0.090 OA
ATOM     14  O   UNL     1       3.897  -1.889   1.147  0.00  0.00    -0.090 OA
ENDBRANCH  11  12
ENDBRANCH   4  11
TORSDOF 3
