REMARK  Name = 
REMARK  11 active torsions:
REMARK  status: ('A' for Active; 'I' for Inactive)
REMARK    1  A    between atoms: C_1  and  C_2
REMARK    2  A    between atoms: C_2  and  C_3
REMARK    3  A    between atoms: C_4  and  C_5
REMARK    4  A    between atoms: C_6  and  C_7
REMARK    5  A    between atoms: C_11  and  C_12
REMARK    6  A    between atoms: C_11  and  C_13
REMARK    7  A    between atoms: C_14  and  C_15
REMARK    8  A    between atoms: C_16  and  C_17
REMARK    9  A    between atoms: C_17  and  C_18
REMARK   10  A    between atoms: C_19  and  C_20
REMARK   11  A    between atoms: C_20  and  O_21
REMARK                            x       y       z     vdW  Elec       q    Type
REMARK                         _______ _______ _______ _____ _____    ______ ____
ROOT
ATOM      1  C   UNL     1       1.241  -0.203   2.130  0.00  0.00    +0.044 C 
ATOM      2  C   UNL     1       0.941   0.468   0.809  0.00  0.00    -0.050 C 
ATOM      3  C   UNL     1       1.878   1.174   0.146  0.00  0.00    +0.003 C 
ENDROOT
BRANCH   2   4
ATOM      4  C   UNL     1      -0.406   0.356   0.198  0.00  0.00    +0.003 C 
ATOM      5  C   UNL     1      -1.221  -0.684   0.411  0.00  0.00    +0.004 C 
BRANCH   5   6
ATOM      6  C   UNL     1      -2.566  -0.741  -0.210  0.00  0.00    -0.043 C 
ATOM      7  C   UNL     1      -2.693  -1.061  -1.528  0.00  0.00    -0.069 C 
ATOM      8  C   UNL     1      -1.480  -1.308  -2.393  0.00  0.00    +0.039 C 
ATOM      9  C   UNL     1      -4.040  -1.092  -2.219  0.00  0.00    +0.031 C 
ATOM     10  C   UNL     1      -5.200  -1.336  -1.262  0.00  0.00    +0.005 C 
ATOM     11  C   UNL     1      -5.095  -0.387  -0.074  0.00  0.00    +0.011 C 
ATOM     12  C   UNL     1      -3.780  -0.605   0.722  0.00  0.00    -0.010 C 
ATOM     13  C   UNL     1      -3.594   0.609   1.661  0.00  0.00    +0.016 C 
ATOM     14  C   UNL     1      -3.896  -1.881   1.586  0.00  0.00    +0.016 C 
ENDBRANCH   5   6
ENDBRANCH   2   4
BRANCH   3  15
ATOM     15  C   UNL     1       3.282   1.310   0.590  0.00  0.00    +0.001 C 
ATOM     16  C   UNL     1       4.138   2.087  -0.083  0.00  0.00    +0.003 C 
BRANCH  16  17
ATOM     17  C   UNL     1       5.554   2.255   0.331  0.00  0.00    -0.044 C 
ATOM     18  C   UNL     1       5.904   2.207   1.797  0.00  0.00    +0.044 C 
ATOM     19  C   UNL     1       6.544   2.466  -0.561  0.00  0.00    +0.094 C 
BRANCH  19  20
ATOM     20  C   UNL     1       6.403   2.427  -2.031  0.00  0.00    +0.330 C 
ATOM     21  O   UNL     1       7.298   2.952  -2.744  0.00  0.00    -0.246 OA
BRANCH  20  22
ATOM     22  O   UNL     1       5.340   1.770  -2.644  0.00  0.00    -0.478 OA
ATOM     23  H   UNL     1       5.264   1.732  -3.654  0.00  0.00    +0.295 HD
ENDBRANCH  20  22
ENDBRANCH  19  20
ENDBRANCH  16  17
ENDBRANCH   3  15
TORSDOF 6
