REMARK  Name = 
REMARK  6 active torsions:
REMARK  status: ('A' for Active; 'I' for Inactive)
REMARK    1  A    between atoms: C_1  and  C_2
REMARK    2  A    between atoms: C_2  and  C_3
REMARK    3  A    between atoms: C_2  and  N_18
REMARK    4  A    between atoms: C_3  and  N_4
REMARK    5  A    between atoms: N_18  and  C_19
REMARK    6  A    between atoms: N_18  and  C_20
REMARK                            x       y       z     vdW  Elec       q    Type
REMARK                         _______ _______ _______ _____ _____    ______ ____
ROOT
ATOM      1  N   UNL     1       0.468   0.159   0.320  0.00  0.00    -0.282 N 
ATOM      2  C   UNL     1       1.332   1.318   0.347  0.00  0.00    +0.049 A 
ATOM      3  C   UNL     1       1.100   2.380   1.241  0.00  0.00    +0.024 A 
ATOM      4  C   UNL     1       2.034   3.412   1.368  0.00  0.00    +0.002 A 
ATOM      5  C   UNL     1       3.219   3.382   0.629  0.00  0.00    +0.001 A 
ATOM      6  C   UNL     1       3.470   2.326  -0.249  0.00  0.00    +0.017 A 
ATOM      7  C   UNL     1       2.527   1.303  -0.400  0.00  0.00    +0.034 A 
ATOM      8  S   UNL     1       2.812  -0.005  -1.598  0.00  0.00    -0.084 S 
ATOM      9  C   UNL     1       2.278  -1.303  -0.479  0.00  0.00    +0.053 A 
ATOM     10  C   UNL     1       1.095  -1.137   0.258  0.00  0.00    +0.139 A 
ATOM     11  N   UNL     1       0.612  -2.173   0.999  0.00  0.00    -0.239 NA
ATOM     12  C   UNL     1       1.252  -3.371   1.055  0.00  0.00    +0.113 A 
ATOM     13  C   UNL     1       2.453  -3.558   0.364  0.00  0.00    +0.021 A 
ATOM     14  C   UNL     1       2.968  -2.515  -0.407  0.00  0.00    +0.020 A 
ENDROOT
BRANCH   1  15
ATOM     15  C   UNL     1      -0.992   0.269   0.466  0.00  0.00    +0.131 C 
BRANCH  15  17
ATOM     16  C   UNL     1      -1.423   0.497  -2.032  0.00  0.00    +0.026 C 
ATOM     17  C   UNL     1      -1.721  -0.324  -0.769  0.00  0.00    +0.071 C 
BRANCH  17  18
ATOM     18  N   UNL     1      -3.192  -0.466  -0.590  0.00  0.00    -0.304 NA
ATOM     19  C   UNL     1      -3.541  -1.665   0.192  0.00  0.00    +0.104 C 
ATOM     20  C   UNL     1      -3.858   0.724  -0.029  0.00  0.00    +0.104 C 
ENDBRANCH  17  18
ENDBRANCH  15  17
ENDBRANCH   1  15
TORSDOF 3
