REMARK  Name = 
REMARK  11 active torsions:
REMARK  status: ('A' for Active; 'I' for Inactive)
REMARK    1  A    between atoms: C_1  and  O_2
REMARK    2  A    between atoms: O_2  and  C_3
REMARK    3  A    between atoms: C_3  and  C_5
REMARK    4  A    between atoms: C_6  and  C_7
REMARK    5  A    between atoms: C_9  and  C_10
REMARK    6  A    between atoms: C_11  and  C_22
REMARK    7  A    between atoms: C_12  and  C_13
REMARK    8  A    between atoms: C_22  and  O_24
REMARK    9  A    between atoms: O_24  and  C_25
REMARK   10  A    between atoms: C_25  and  C_26
REMARK   11  A    between atoms: C_25  and  C_27
REMARK                            x       y       z     vdW  Elec       q    Type
REMARK                         _______ _______ _______ _____ _____    ______ ____
ROOT
ATOM      1  C   UNL     1      -1.917  -1.000   0.517  0.00  0.00    +0.065 C 
ATOM      2  C   UNL     1      -1.803  -2.152  -0.184  0.00  0.00    +0.016 C 
ATOM      3  C   UNL     1      -2.964  -3.085  -0.410  0.00  0.00    +0.061 C 
ATOM      4  N   UNL     1      -0.529  -2.528  -0.724  0.00  0.00    -0.321 N 
ATOM      5  C   UNL     1       0.689  -1.875  -0.343  0.00  0.00    +0.016 C 
ATOM      6  C   UNL     1       1.990  -2.533  -0.727  0.00  0.00    +0.061 C 
ATOM      7  C   UNL     1       0.635  -0.717   0.354  0.00  0.00    +0.065 C 
ATOM      8  C   UNL     1      -0.709  -0.092   0.699  0.00  0.00    +0.098 C 
ATOM      9  H   UNL     1      -0.475  -3.363  -1.351  0.00  0.00    +0.152 HD
ENDROOT
BRANCH   8  10
ATOM     10  C   UNL     1      -0.899   1.170  -0.118  0.00  0.00    -0.004 A 
ATOM     11  C   UNL     1      -0.991   1.132  -1.532  0.00  0.00    +0.007 A 
ATOM     12  C   UNL     1      -1.165   2.322  -2.277  0.00  0.00    +0.003 A 
ATOM     13  C   UNL     1      -1.251   3.567  -1.626  0.00  0.00    +0.033 A 
ATOM     14  C   UNL     1      -1.157   3.569  -0.239  0.00  0.00    +0.134 A 
ATOM     15  N   UNL     1      -1.206   4.607   0.606  0.00  0.00    -0.049 NA
ATOM     16  O   UNL     1      -1.069   4.067   1.792  0.00  0.00    -0.242 OA
ATOM     17  N   UNL     1      -0.934   2.764   1.780  0.00  0.00    -0.049 NA
ATOM     18  C   UNL     1      -0.989   2.432   0.481  0.00  0.00    +0.138 A 
ENDBRANCH   8  10
BRANCH   1  19
ATOM     19  C   UNL     1      -3.211  -0.525   1.081  0.00  0.00    +0.337 C 
ATOM     20  O   UNL     1      -3.206   0.222   2.099  0.00  0.00    -0.245 OA
BRANCH  19  22
ATOM     21  C   UNL     1      -5.680  -0.395   0.956  0.00  0.00    +0.280 C 
ATOM     22  O   UNL     1      -4.424  -0.848   0.466  0.00  0.00    -0.465 OA
ENDBRANCH  19  22
ENDBRANCH   1  19
BRANCH   7  23
ATOM     23  C   UNL     1       1.855   0.036   0.753  0.00  0.00    +0.338 C 
ATOM     24  O   UNL     1       1.829   0.755   1.789  0.00  0.00    -0.245 OA
BRANCH  23  25
ATOM     25  O   UNL     1       3.005   0.003  -0.045  0.00  0.00    -0.459 OA
BRANCH  25  26
ATOM     26  C   UNL     1       4.228   0.653   0.300  0.00  0.00    +0.171 C 
ATOM     27  C   UNL     1       4.948  -0.128   1.403  0.00  0.00    +0.052 C 
ATOM     28  C   UNL     1       5.104   0.748  -0.947  0.00  0.00    +0.052 C 
ENDBRANCH  25  26
ENDBRANCH  23  25
ENDBRANCH   7  23
TORSDOF 6
