REMARK  Name = 
REMARK  13 active torsions:
REMARK  status: ('A' for Active; 'I' for Inactive)
REMARK    1  A    between atoms: C_1  and  C_2
REMARK    2  A    between atoms: C_2  and  C_3
REMARK    3  A    between atoms: C_3  and  C_4
REMARK    4  A    between atoms: C_3  and  N_5
REMARK    5  A    between atoms: N_8  and  C_11
REMARK    6  A    between atoms: C_14  and  N_17
REMARK    7  A    between atoms: N_20  and  C_23
REMARK    8  A    between atoms: C_26  and  O_27
REMARK    9  A    between atoms: O_27  and  C_28
REMARK   10  A    between atoms: C_28  and  C_29
REMARK   11  A    between atoms: C_32  and  C_33
REMARK   12  A    between atoms: C_32  and  C_40
REMARK   13  A    between atoms: C_33  and  N_34
REMARK                            x       y       z     vdW  Elec       q    Type
REMARK                         _______ _______ _______ _____ _____    ______ ____
ROOT
ATOM      1  C   UNL     1      -1.191  -0.971   0.869  0.00  0.00    +0.030 A 
ATOM      2  C   UNL     1      -1.795  -2.060   1.531  0.00  0.00    +0.027 A 
ATOM      3  C   UNL     1      -3.155  -2.034   1.851  0.00  0.00    +0.047 A 
ATOM      4  C   UNL     1      -3.949  -0.935   1.512  0.00  0.00    +0.121 A 
ATOM      5  C   UNL     1      -3.363   0.140   0.819  0.00  0.00    +0.047 A 
ATOM      6  C   UNL     1      -2.000   0.123   0.508  0.00  0.00    +0.027 A 
ENDROOT
BRANCH   1  10
ATOM      7  N   UNL     1       3.038  -0.681   0.150  0.00  0.00    -0.327 N 
ATOM      8  C   UNL     1       2.136  -0.699  -1.011  0.00  0.00    +0.124 C 
ATOM      9  C   UNL     1       0.729  -0.243  -0.608  0.00  0.00    +0.124 C 
ATOM     10  N   UNL     1       0.228  -0.975   0.568  0.00  0.00    -0.327 N 
ATOM     11  C   UNL     1       1.165  -1.774   1.377  0.00  0.00    +0.124 C 
ATOM     12  C   UNL     1       2.532  -1.087   1.472  0.00  0.00    +0.124 C 
BRANCH   7  16
ATOM     13  C   UNL     1       7.179   0.279  -0.327  0.00  0.00    +0.053 A 
ATOM     14  C   UNL     1       6.511   0.577   0.871  0.00  0.00    +0.028 A 
ATOM     15  C   UNL     1       5.158   0.263   1.026  0.00  0.00    +0.025 A 
ATOM     16  C   UNL     1       4.440  -0.358  -0.013  0.00  0.00    +0.030 A 
ATOM     17  C   UNL     1       5.116  -0.662  -1.211  0.00  0.00    +0.025 A 
ATOM     18  C   UNL     1       6.467  -0.339  -1.368  0.00  0.00    +0.028 A 
BRANCH  13  22
ATOM     19  N   UNL     1      10.724   1.025  -0.136  0.00  0.00    -0.210 N 
ATOM     20  N   UNL     1      10.498   1.269  -1.420  0.00  0.00    -0.157 NA
ATOM     21  C   UNL     1       9.187   1.021  -1.631  0.00  0.00    +0.230 A 
ATOM     22  N   UNL     1       8.568   0.618  -0.497  0.00  0.00    -0.250 N 
ATOM     23  C   UNL     1       9.563   0.620   0.412  0.00  0.00    +0.351 A 
ATOM     24  O   UNL     1       9.437   0.250   1.612  0.00  0.00    -0.244 OA
BRANCH  19  25
ATOM     25  C   UNL     1      12.035   1.104   0.522  0.00  0.00    +0.109 C 
ATOM     26  C   UNL     1      12.893   2.228  -0.078  0.00  0.00    +0.033 C 
BRANCH  25  28
ATOM     27  C   UNL     1      13.040  -0.803  -0.900  0.00  0.00    +0.006 C 
ATOM     28  C   UNL     1      12.747  -0.264   0.503  0.00  0.00    +0.023 C 
ENDBRANCH  25  28
ENDBRANCH  19  25
ENDBRANCH  13  22
ENDBRANCH   7  16
ENDBRANCH   1  10
BRANCH   4  29
ATOM     29  O   UNL     1      -5.299  -0.950   1.900  0.00  0.00    -0.489 OA
BRANCH  29  30
ATOM     30  C   UNL     1      -6.263   0.062   1.603  0.00  0.00    +0.263 C 
BRANCH  30  31
ATOM     31  C   UNL     1      -6.811  -0.109   0.178  0.00  0.00    +0.185 C 
ATOM     32  C   UNL     1      -7.667  -1.344   0.049  0.00  0.00    +0.198 C 
ATOM     33  O   UNL     1      -8.983  -0.893   0.080  0.00  0.00    -0.341 OA
ATOM     34  C   UNL     1      -8.926   0.444  -0.376  0.00  0.00    +0.219 C 
ATOM     35  O   UNL     1      -7.636   0.974  -0.135  0.00  0.00    -0.334 OA
BRANCH  34  36
ATOM     36  C   UNL     1      -9.260   0.512  -1.871  0.00  0.00    +0.031 A 
ATOM     37  C   UNL     1      -8.929   1.638  -2.675  0.00  0.00    +0.051 A 
ATOM     38 CL   UNL     1      -8.097   3.056  -2.039  0.00  0.00    -0.083 Cl
ATOM     39  C   UNL     1      -9.296   1.670  -4.027  0.00  0.00    +0.040 A 
ATOM     40  C   UNL     1     -10.005   0.611  -4.595  0.00  0.00    +0.042 A 
ATOM     41 CL   UNL     1     -10.468   0.670  -6.287  0.00  0.00    -0.083 Cl
ATOM     42  C   UNL     1     -10.364  -0.484  -3.811  0.00  0.00    +0.020 A 
ATOM     43  C   UNL     1     -10.008  -0.530  -2.462  0.00  0.00    +0.012 A 
ENDBRANCH  34  36
BRANCH  34  44
ATOM     44  C   UNL     1      -9.971   1.267   0.399  0.00  0.00    +0.215 C 
BRANCH  44  45
ATOM     45  N   UNL     1      -9.656   1.315   1.824  0.00  0.00    -0.246 N 
ATOM     46  C   UNL     1      -9.998   0.412   2.757  0.00  0.00    +0.219 A 
ATOM     47  N   UNL     1      -9.524   0.765   3.967  0.00  0.00    -0.223 NA
ATOM     48  C   UNL     1      -8.879   1.924   3.702  0.00  0.00    +0.244 A 
ATOM     49  N   UNL     1      -8.949   2.268   2.401  0.00  0.00    -0.158 NA
ENDBRANCH  44  45
ENDBRANCH  34  44
ENDBRANCH  30  31
ENDBRANCH  29  30
ENDBRANCH   4  29
TORSDOF 11
