REMARK  Name = 
REMARK  11 active torsions:
REMARK  status: ('A' for Active; 'I' for Inactive)
REMARK    1  A    between atoms: C_1  and  C_2
REMARK    2  A    between atoms: C_2  and  C_3
REMARK    3  A    between atoms: C_2  and  C_4
REMARK    4  A    between atoms: C_2  and  C_5
REMARK    5  A    between atoms: C_7  and  C_26
REMARK    6  A    between atoms: C_8  and  O_9
REMARK    7  A    between atoms: C_11  and  N_12
REMARK    8  A    between atoms: C_13  and  C_15
REMARK    9  A    between atoms: C_26  and  C_27
REMARK   10  A    between atoms: C_26  and  C_28
REMARK   11  A    between atoms: C_26  and  C_29
REMARK                            x       y       z     vdW  Elec       q    Type
REMARK                         _______ _______ _______ _____ _____    ______ ____
ROOT
ATOM      1  C   UNL     1      -1.494  -0.713  -0.035  0.00  0.00    -0.020 A 
ATOM      2  C   UNL     1      -2.883  -0.429  -0.141  0.00  0.00    +0.013 A 
ATOM      3  C   UNL     1      -3.418   0.881  -0.037  0.00  0.00    -0.000 A 
ATOM      4  C   UNL     1      -2.508   1.938   0.202  0.00  0.00    +0.122 A 
ATOM      5  C   UNL     1      -1.144   1.681   0.321  0.00  0.00    +0.069 A 
ATOM      6  C   UNL     1      -0.627   0.390   0.205  0.00  0.00    +0.041 A 
ENDROOT
BRANCH   1   8
ATOM      7  C   UNL     1       0.106  -2.261  -1.289  0.00  0.00    +0.015 C 
ATOM      8  C   UNL     1      -0.962  -2.174  -0.172  0.00  0.00    -0.011 C 
ATOM      9  C   UNL     1      -0.360  -2.647   1.170  0.00  0.00    +0.015 C 
ATOM     10  C   UNL     1      -2.068  -3.196  -0.547  0.00  0.00    +0.015 C 
ENDBRANCH   1   8
BRANCH   6  11
ATOM     11  N   UNL     1       0.788   0.235   0.371  0.00  0.00    -0.281 N 
ATOM     12  C   UNL     1       1.714   0.773  -0.589  0.00  0.00    +0.253 C 
ATOM     13  O   UNL     1       1.280   1.281  -1.659  0.00  0.00    -0.270 OA
ATOM     14  H   UNL     1       1.133   0.037   1.335  0.00  0.00    +0.155 HD
BRANCH  12  15
ATOM     15  C   UNL     1       3.175   0.766  -0.332  0.00  0.00    +0.100 A 
ATOM     16  C   UNL     1       3.953   1.842  -0.787  0.00  0.00    +0.100 A 
ATOM     17  N   UNL     1       5.293   1.878  -0.565  0.00  0.00    -0.360 N 
ATOM     18  C   UNL     1       5.936   0.873   0.094  0.00  0.00    +0.050 A 
ATOM     19  C   UNL     1       7.322   0.940   0.308  0.00  0.00    +0.026 A 
ATOM     20  C   UNL     1       7.982  -0.095   0.975  0.00  0.00    +0.002 A 
ATOM     21  C   UNL     1       7.267  -1.203   1.433  0.00  0.00    +0.001 A 
ATOM     22  C   UNL     1       5.887  -1.282   1.229  0.00  0.00    +0.014 A 
ATOM     23  C   UNL     1       5.206  -0.246   0.561  0.00  0.00    +0.046 A 
ATOM     24  C   UNL     1       3.817  -0.298   0.335  0.00  0.00    +0.201 A 
ATOM     25  O   UNL     1       3.156  -1.306   0.707  0.00  0.00    -0.286 OA
ATOM     26  H   UNL     1       5.831   2.703  -0.916  0.00  0.00    +0.165 HD
ENDBRANCH  12  15
ENDBRANCH   6  11
BRANCH   3  27
ATOM     27  C   UNL     1      -4.943   1.155  -0.175  0.00  0.00    -0.009 C 
ATOM     28  C   UNL     1      -5.490   1.771   1.134  0.00  0.00    +0.015 C 
ATOM     29  C   UNL     1      -5.205   2.118  -1.357  0.00  0.00    +0.015 C 
ATOM     30  C   UNL     1      -5.777  -0.124  -0.450  0.00  0.00    +0.015 C 
ENDBRANCH   3  27
BRANCH   4  31
ATOM     31  O   UNL     1      -2.946   3.256   0.327  0.00  0.00    -0.506 OA
ATOM     32  H   UNL     1      -2.305   4.022   0.499  0.00  0.00    +0.292 HD
ENDBRANCH   4  31
TORSDOF 5
