REMARK  Name = 
REMARK  41 active torsions:
REMARK  status: ('A' for Active; 'I' for Inactive)
REMARK    1  A    between atoms: C_1  and  O_2
REMARK    2  A    between atoms: O_2  and  C_3
REMARK    3  A    between atoms: C_5  and  O_11
REMARK    4  A    between atoms: C_7  and  C_8
REMARK    5  A    between atoms: C_9  and  O_10
REMARK    6  A    between atoms: O_11  and  C_12
REMARK    7  A    between atoms: C_13  and  C_14
REMARK    8  A    between atoms: C_16  and  O_21
REMARK    9  A    between atoms: C_18  and  O_19
REMARK   10  A    between atoms: O_19  and  C_20
REMARK   11  A    between atoms: O_21  and  C_22
REMARK   12  A    between atoms: C_23  and  C_24
REMARK   13  A    between atoms: C_32  and  O_33
REMARK   14  A    between atoms: C_34  and  C_35
REMARK   15  A    between atoms: C_46  and  C_47
REMARK   16  A    between atoms: C_52  and  C_53
REMARK   17  A    between atoms: C_54  and  C_55
REMARK   18  A    between atoms: C_55  and  C_56
REMARK   19  A    between atoms: C_55  and  C_57
REMARK   20  A    between atoms: C_60  and  O_61
REMARK   21  A    between atoms: C_62  and  C_63
REMARK   22  A    between atoms: C_63  and  C_64
REMARK   23  A    between atoms: C_64  and  C_65
REMARK   24  A    between atoms: C_64  and  C_66
REMARK   25  A    between atoms: C_71  and  C_72
REMARK   26  A    between atoms: C_77  and  C_78
REMARK   27  A    between atoms: C_79  and  O_80
REMARK   28  A    between atoms: O_80  and  C_81
REMARK   29  A    between atoms: C_83  and  C_84
REMARK   30  A    between atoms: C_85  and  O_86
REMARK   31  A    between atoms: O_86  and  C_87
REMARK   32  A    between atoms: C_89  and  C_90
REMARK   33  A    between atoms: C_91  and  O_92
REMARK   34  A    between atoms: C_93  and  O_94
REMARK   35  A    between atoms: O_94  and  C_95
REMARK   36  A    between atoms: C_97  and  O_98
REMARK   37  A    between atoms: O_98  and  C_99
REMARK   38  A    between atoms: C_101  and  C_102
REMARK   39  A    between atoms: C_110  and  O_111
REMARK   40  A    between atoms: C_112  and  C_113
REMARK   41  A    between atoms: C_122  and  O_123
REMARK                            x       y       z     vdW  Elec       q    Type
REMARK                         _______ _______ _______ _____ _____    ______ ____
ROOT
ATOM      1  C   UNL     1       1.069   0.573  -1.773  0.00  0.00    +0.153 C 
ATOM      2  C   UNL     1       0.509  -0.577  -2.671  0.00  0.00    +0.042 C 
ATOM      3  C   UNL     1       1.654  -1.449  -3.209  0.00  0.00    +0.015 C 
ATOM      4  C   UNL     1      -0.565  -1.363  -1.941  0.00  0.00    -0.021 C 
ATOM      5  C   UNL     1      -0.691  -2.696  -1.889  0.00  0.00    -0.004 C 
ATOM      6  C   UNL     1      -1.756  -3.263  -1.042  0.00  0.00    +0.004 C 
ATOM      7  C   UNL     1      -2.354  -4.445  -1.255  0.00  0.00    -0.009 C 
ATOM      8  C   UNL     1      -1.996  -5.399  -2.325  0.00  0.00    +0.194 C 
ATOM      9  O   UNL     1      -2.785  -6.555  -2.172  0.00  0.00    -0.366 OA
ATOM     10  C   UNL     1      -3.753  -6.318  -1.161  0.00  0.00    +0.188 C 
ATOM     11  C   UNL     1      -5.176  -6.452  -1.760  0.00  0.00    +0.172 C 
ATOM     12  C   UNL     1      -6.208  -5.933  -0.780  0.00  0.00    -0.045 C 
ATOM     13  C   UNL     1      -7.444  -6.727  -0.460  0.00  0.00    +0.041 C 
ATOM     14  C   UNL     1      -5.988  -4.758  -0.165  0.00  0.00    -0.008 C 
ATOM     15  C   UNL     1      -4.726  -3.985  -0.463  0.00  0.00    +0.159 C 
ATOM     16  C   UNL     1      -4.620  -2.785   0.453  0.00  0.00    +0.317 C 
ATOM     17  O   UNL     1      -4.070  -2.885   1.585  0.00  0.00    -0.250 OA
ATOM     18  O   UNL     1      -5.189  -1.566   0.056  0.00  0.00    -0.461 OA
ATOM     19  C   UNL     1      -4.844  -0.309   0.650  0.00  0.00    +0.184 C 
ATOM     20  C   UNL     1      -3.506   0.150   0.112  0.00  0.00    +0.076 C 
ATOM     21  C   UNL     1      -3.078   1.474   0.771  0.00  0.00    +0.129 C 
ATOM     22  C   UNL     1      -2.067   2.254  -0.100  0.00  0.00    +0.059 C 
ATOM     23  C   UNL     1      -0.806   1.453  -0.359  0.00  0.00    -0.023 C 
ATOM     24  C   UNL     1      -0.021   1.601  -1.456  0.00  0.00    -0.047 C 
ATOM     25  C   UNL     1      -0.283   2.704  -2.457  0.00  0.00    +0.041 C 
ATOM     26  O   UNL     1      -4.151   2.305   1.211  0.00  0.00    -0.345 OA
ATOM     27  C   UNL     1      -5.398   2.213   0.502  0.00  0.00    +0.174 C 
ATOM     28  C   UNL     1      -5.355   2.965  -0.838  0.00  0.00    +0.065 C 
ATOM     29  C   UNL     1      -4.858   4.390  -0.638  0.00  0.00    +0.011 C 
ATOM     30  C   UNL     1      -5.403   5.095   0.638  0.00  0.00    +0.015 C 
ATOM     31  C   UNL     1      -4.260   5.935   1.253  0.00  0.00    +0.010 C 
ATOM     32  C   UNL     1      -6.043   4.146   1.733  0.00  0.00    +0.127 C 
ATOM     33  O   UNL     1      -6.407   2.856   1.258  0.00  0.00    -0.345 OA
ATOM     34  C   UNL     1      -5.889   0.739   0.288  0.00  0.00    +0.109 C 
ATOM     35  C   UNL     1      -3.479  -4.957  -0.447  0.00  0.00    +0.134 C 
ENDROOT
BRANCH  32  36
ATOM     36  C   UNL     1      -7.315   4.748   2.413  0.00  0.00    +0.012 C 
ATOM     37  C   UNL     1      -8.518   4.843   1.456  0.00  0.00    +0.010 C 
ATOM     38  C   UNL     1      -7.067   6.091   3.110  0.00  0.00    +0.010 C 
ENDBRANCH  32  36
BRANCH  11  39
ATOM     39  O   UNL     1      -5.284  -5.723  -2.957  0.00  0.00    -0.385 OA
ATOM     40  H   UNL     1      -4.886  -6.283  -3.676  0.00  0.00    +0.210 HD
ENDBRANCH  11  39
BRANCH  35  41
ATOM     41  O   UNL     1      -3.023  -5.197   0.866  0.00  0.00    -0.380 OA
ATOM     42  H   UNL     1      -3.771  -5.608   1.369  0.00  0.00    +0.211 HD
ENDBRANCH  35  41
BRANCH   1  43
ATOM     43  O   UNL     1       1.595   0.031  -0.566  0.00  0.00    -0.343 OA
BRANCH  43  48
ATOM     44  C   UNL     1       5.677   0.224   0.294  0.00  0.00    +0.179 C 
ATOM     45  C   UNL     1       5.132   0.051  -1.159  0.00  0.00    +0.150 C 
ATOM     46  C   UNL     1       5.363   1.289  -2.038  0.00  0.00    +0.041 C 
ATOM     47  O   UNL     1       3.773  -0.362  -1.206  0.00  0.00    -0.346 OA
ATOM     48  C   UNL     1       2.943   0.407  -0.353  0.00  0.00    +0.254 C 
ATOM     49  C   UNL     1       3.294   0.154   1.129  0.00  0.00    +0.095 C 
ATOM     50  C   UNL     1       4.713  -0.417   1.302  0.00  0.00    +0.154 C 
BRANCH  50  51
ATOM     51  O   UNL     1       5.185  -0.142   2.611  0.00  0.00    -0.377 OA
ATOM     52  C   UNL     1       4.972  -1.245   3.462  0.00  0.00    +0.194 C 
ENDBRANCH  50  51
BRANCH  44  53
ATOM     53  O   UNL     1       6.925  -0.440   0.423  0.00  0.00    -0.343 OA
BRANCH  53  56
ATOM     54  C   UNL     1       9.896  -0.192   1.754  0.00  0.00    +0.154 C 
ATOM     55  C   UNL     1       8.717   0.749   1.495  0.00  0.00    +0.095 C 
ATOM     56  C   UNL     1       8.030   0.402   0.150  0.00  0.00    +0.254 C 
ATOM     57  O   UNL     1       8.868  -0.310  -0.757  0.00  0.00    -0.346 OA
ATOM     58  C   UNL     1      10.214   0.142  -0.779  0.00  0.00    +0.149 C 
ATOM     59  C   UNL     1      10.337   1.574  -1.336  0.00  0.00    +0.041 C 
ATOM     60  C   UNL     1      10.915  -0.042   0.603  0.00  0.00    +0.172 C 
BRANCH  54  62
ATOM     61  C   UNL     1      10.043  -0.648   4.035  0.00  0.00    +0.194 C 
ATOM     62  O   UNL     1      10.526   0.154   2.978  0.00  0.00    -0.377 OA
ENDBRANCH  54  62
BRANCH  60  63
ATOM     63  O   UNL     1      11.781  -1.151   0.580  0.00  0.00    -0.387 OA
ATOM     64  H   UNL     1      11.237  -1.954   0.360  0.00  0.00    +0.210 HD
ENDBRANCH  60  63
ENDBRANCH  53  56
ENDBRANCH  44  53
ENDBRANCH  43  48
ENDBRANCH   1  43
TORSDOF 10
REMARK  Name = 
REMARK  41 active torsions:
REMARK  status: ('A' for Active; 'I' for Inactive)
REMARK    1  A    between atoms: C_1  and  O_2
REMARK    2  A    between atoms: O_2  and  C_3
REMARK    3  A    between atoms: C_5  and  O_11
REMARK    4  A    between atoms: C_7  and  C_8
REMARK    5  A    between atoms: C_9  and  O_10
REMARK    6  A    between atoms: O_11  and  C_12
REMARK    7  A    between atoms: C_13  and  C_14
REMARK    8  A    between atoms: C_16  and  O_21
REMARK    9  A    between atoms: C_18  and  O_19
REMARK   10  A    between atoms: O_19  and  C_20
REMARK   11  A    between atoms: O_21  and  C_22
REMARK   12  A    between atoms: C_23  and  C_24
REMARK   13  A    between atoms: C_32  and  O_33
REMARK   14  A    between atoms: C_34  and  C_35
REMARK   15  A    between atoms: C_46  and  C_47
REMARK   16  A    between atoms: C_52  and  C_53
REMARK   17  A    between atoms: C_54  and  C_55
REMARK   18  A    between atoms: C_55  and  C_56
REMARK   19  A    between atoms: C_55  and  C_57
REMARK   20  A    between atoms: C_60  and  O_61
REMARK   21  A    between atoms: C_62  and  C_63
REMARK   22  A    between atoms: C_63  and  C_64
REMARK   23  A    between atoms: C_64  and  C_65
REMARK   24  A    between atoms: C_64  and  C_66
REMARK   25  A    between atoms: C_71  and  C_72
REMARK   26  A    between atoms: C_77  and  C_78
REMARK   27  A    between atoms: C_79  and  O_80
REMARK   28  A    between atoms: O_80  and  C_81
REMARK   29  A    between atoms: C_83  and  C_84
REMARK   30  A    between atoms: C_85  and  O_86
REMARK   31  A    between atoms: O_86  and  C_87
REMARK   32  A    between atoms: C_89  and  C_90
REMARK   33  A    between atoms: C_91  and  O_92
REMARK   34  A    between atoms: C_93  and  O_94
REMARK   35  A    between atoms: O_94  and  C_95
REMARK   36  A    between atoms: C_97  and  O_98
REMARK   37  A    between atoms: O_98  and  C_99
REMARK   38  A    between atoms: C_101  and  C_102
REMARK   39  A    between atoms: C_110  and  O_111
REMARK   40  A    between atoms: C_112  and  C_113
REMARK   41  A    between atoms: C_122  and  O_123
REMARK                            x       y       z     vdW  Elec       q    Type
REMARK                         _______ _______ _______ _____ _____    ______ ____
ROOT
ATOM      1  C   UNL     1      -5.818  -4.028   0.323  0.00  0.00    +0.127 C 
ATOM      2  O   UNL     1      -5.235  -2.807  -0.092  0.00  0.00    -0.345 OA
ATOM      3  C   UNL     1      -4.168  -2.302   0.725  0.00  0.00    +0.174 C 
ATOM      4  C   UNL     1      -3.812  -3.206   1.941  0.00  0.00    +0.065 C 
ATOM      5  C   UNL     1      -5.049  -3.666   2.723  0.00  0.00    +0.011 C 
ATOM      6  C   UNL     1      -6.271  -3.922   1.810  0.00  0.00    +0.015 C 
ATOM      7  C   UNL     1      -7.061  -5.147   2.300  0.00  0.00    +0.010 C 
ATOM      8  O   UNL     1      -2.976  -2.186  -0.057  0.00  0.00    -0.345 OA
ATOM      9  C   UNL     1      -3.174  -1.395  -1.218  0.00  0.00    +0.129 C 
ATOM     10  C   UNL     1      -1.917  -1.447  -2.116  0.00  0.00    +0.059 C 
ATOM     11  C   UNL     1      -0.689  -0.792  -1.507  0.00  0.00    -0.023 C 
ATOM     12  C   UNL     1       0.387  -0.417  -2.240  0.00  0.00    -0.047 C 
ATOM     13  C   UNL     1       0.462  -0.747  -3.718  0.00  0.00    +0.041 C 
ATOM     14  C   UNL     1       1.469   0.455  -1.599  0.00  0.00    +0.153 C 
ATOM     15  C   UNL     1       1.224   1.991  -1.809  0.00  0.00    +0.042 C 
ATOM     16  C   UNL     1       1.724   2.503  -3.167  0.00  0.00    +0.015 C 
ATOM     17  C   UNL     1      -0.235   2.358  -1.665  0.00  0.00    -0.021 C 
ATOM     18  C   UNL     1      -0.686   3.313  -0.844  0.00  0.00    -0.004 C 
ATOM     19  C   UNL     1      -2.140   3.482  -0.693  0.00  0.00    +0.004 C 
ATOM     20  C   UNL     1      -2.730   4.481  -0.025  0.00  0.00    -0.009 C 
ATOM     21  C   UNL     1      -2.089   5.729   0.435  0.00  0.00    +0.194 C 
ATOM     22  O   UNL     1      -3.107   6.581   0.929  0.00  0.00    -0.366 OA
ATOM     23  C   UNL     1      -4.363   6.051   0.532  0.00  0.00    +0.188 C 
ATOM     24  C   UNL     1      -5.469   6.368   1.596  0.00  0.00    +0.172 C 
ATOM     25  C   UNL     1      -6.468   5.231   1.766  0.00  0.00    -0.045 C 
ATOM     26  C   UNL     1      -7.927   5.522   1.988  0.00  0.00    +0.041 C 
ATOM     27  C   UNL     1      -6.035   3.954   1.756  0.00  0.00    -0.008 C 
ATOM     28  C   UNL     1      -4.581   3.692   1.463  0.00  0.00    +0.159 C 
ATOM     29  C   UNL     1      -4.268   2.227   1.296  0.00  0.00    +0.317 C 
ATOM     30  O   UNL     1      -3.169   1.802   1.734  0.00  0.00    -0.250 OA
ATOM     31  O   UNL     1      -5.093   1.407   0.504  0.00  0.00    -0.461 OA
ATOM     32  C   UNL     1      -4.780   0.073   0.069  0.00  0.00    +0.184 C 
ATOM     33  C   UNL     1      -3.552   0.054  -0.847  0.00  0.00    +0.076 C 
ATOM     34  C   UNL     1      -4.580  -0.900   1.245  0.00  0.00    +0.109 C 
ATOM     35  C   UNL     1      -4.185   4.546   0.228  0.00  0.00    +0.134 C 
ENDROOT
BRANCH   1  36
ATOM     36  C   UNL     1      -6.954  -4.385  -0.682  0.00  0.00    +0.015 C 
ATOM     37  C   UNL     1      -6.342  -4.740  -2.050  0.00  0.00    +0.010 C 
BRANCH  36  39
ATOM     38  C   UNL     1      -9.348  -3.723  -1.327  0.00  0.00    +0.004 C 
ATOM     39  C   UNL     1      -7.984  -3.234  -0.838  0.00  0.00    +0.002 C 
ENDBRANCH  36  39
ENDBRANCH   1  36
BRANCH  24  40
ATOM     40  O   UNL     1      -4.888   6.626   2.850  0.00  0.00    -0.385 OA
ATOM     41  H   UNL     1      -4.611   7.578   2.850  0.00  0.00    +0.210 HD
ENDBRANCH  24  40
BRANCH  35  42
ATOM     42  O   UNL     1      -4.942   4.160  -0.902  0.00  0.00    -0.380 OA
ATOM     43  H   UNL     1      -4.604   4.655  -1.693  0.00  0.00    +0.211 HD
ENDBRANCH  35  42
BRANCH  14  44
ATOM     44  O   UNL     1       2.722   0.086  -2.159  0.00  0.00    -0.343 OA
BRANCH  44  45
ATOM     45  C   UNL     1       3.710  -0.198  -1.189  0.00  0.00    +0.254 C 
ATOM     46  O   UNL     1       4.131   1.008  -0.572  0.00  0.00    -0.346 OA
ATOM     47  C   UNL     1       5.059   0.783   0.487  0.00  0.00    +0.150 C 
ATOM     48  C   UNL     1       4.322   0.537   1.810  0.00  0.00    +0.041 C 
ATOM     49  C   UNL     1       6.119  -0.318   0.182  0.00  0.00    +0.179 C 
ATOM     50  C   UNL     1       6.250  -0.475  -1.339  0.00  0.00    +0.154 C 
ATOM     51  C   UNL     1       4.887  -0.882  -1.923  0.00  0.00    +0.095 C 
BRANCH  50  52
ATOM     52  O   UNL     1       7.209  -1.478  -1.631  0.00  0.00    -0.377 OA
ATOM     53  C   UNL     1       7.895  -1.177  -2.828  0.00  0.00    +0.194 C 
ENDBRANCH  50  52
BRANCH  49  54
ATOM     54  O   UNL     1       7.378   0.081   0.711  0.00  0.00    -0.343 OA
BRANCH  54  55
ATOM     55  C   UNL     1       7.806  -0.728   1.798  0.00  0.00    +0.254 C 
ATOM     56  O   UNL     1       8.526   0.083   2.718  0.00  0.00    -0.346 OA
ATOM     57  C   UNL     1       9.917   0.248   2.451  0.00  0.00    +0.149 C 
ATOM     58  C   UNL     1      10.736  -0.519   3.499  0.00  0.00    +0.041 C 
ATOM     59  C   UNL     1      10.372  -0.082   1.003  0.00  0.00    +0.172 C 
ATOM     60  C   UNL     1       9.892  -1.488   0.545  0.00  0.00    +0.154 C 
ATOM     61  C   UNL     1       8.626  -1.930   1.300  0.00  0.00    +0.095 C 
BRANCH  59  62
ATOM     62  O   UNL     1       9.879   0.910   0.138  0.00  0.00    -0.387 OA
ATOM     63  H   UNL     1      10.337   0.786  -0.734  0.00  0.00    +0.210 HD
ENDBRANCH  59  62
BRANCH  60  64
ATOM     64  O   UNL     1      10.907  -2.457   0.767  0.00  0.00    -0.377 OA
ATOM     65  C   UNL     1      11.748  -2.573  -0.356  0.00  0.00    +0.194 C 
ENDBRANCH  60  64
ENDBRANCH  54  55
ENDBRANCH  49  54
ENDBRANCH  44  45
ENDBRANCH  14  44
TORSDOF 11
