REMARK  Name = 
REMARK  11 active torsions:
REMARK  status: ('A' for Active; 'I' for Inactive)
REMARK    1  A    between atoms: C_1  and  C_2
REMARK    2  A    between atoms: C_6  and  C_7
REMARK    3  A    between atoms: C_11  and  C_27
REMARK    4  A    between atoms: C_16  and  O_17
REMARK    5  A    between atoms: C_18  and  C_19
REMARK    6  A    between atoms: C_18  and  C_20
REMARK    7  A    between atoms: C_23  and  C_24
REMARK    8  A    between atoms: C_25  and  O_26
REMARK    9  A    between atoms: C_27  and  C_28
REMARK   10  A    between atoms: C_29  and  C_30
REMARK   11  A    between atoms: C_33  and  C_34
REMARK                            x       y       z     vdW  Elec       q    Type
REMARK                         _______ _______ _______ _____ _____    ______ ____
ROOT
ATOM      1  C   UNL     1      -4.971   1.708  -1.018  0.00  0.00    +0.010 C 
ATOM      2  C   UNL     1      -3.783   0.820  -0.607  0.00  0.00    +0.015 C 
ATOM      3  C   UNL     1      -2.418   1.525  -0.847  0.00  0.00    +0.006 C 
ATOM      4  C   UNL     1      -2.328   3.004  -0.408  0.00  0.00    +0.003 C 
ATOM      5  C   UNL     1      -0.921   3.594  -0.648  0.00  0.00    +0.037 C 
ATOM      6  C   UNL     1       0.090   3.291   0.485  0.00  0.00    +0.093 C 
ATOM      7  C   UNL     1      -0.251   3.776   1.897  0.00  0.00    +0.044 C 
ATOM      8  O   UNL     1       0.457   1.934   0.498  0.00  0.00    -0.365 OA
ATOM      9  C   UNL     1       1.508   2.839   0.244  0.00  0.00    +0.153 C 
ATOM     10  C   UNL     1       2.096   2.684  -1.183  0.00  0.00    +0.061 C 
ATOM     11  C   UNL     1       2.348   1.223  -1.639  0.00  0.00    +0.102 C 
ATOM     12  N   UNL     1       1.082   0.490  -1.788  0.00  0.00    -0.309 N 
ATOM     13  C   UNL     1       0.975  -0.914  -2.071  0.00  0.00    +0.216 C 
ATOM     14  O   UNL     1       1.994  -1.581  -2.398  0.00  0.00    -0.276 OA
ATOM     15  C   UNL     1      -0.366  -1.591  -1.967  0.00  0.00    +0.128 C 
ATOM     16  C   UNL     1      -0.415  -2.709  -0.890  0.00  0.00    +0.136 C 
ATOM     17  C   UNL     1      -1.842  -2.890  -0.246  0.00  0.00    +0.050 C 
ATOM     18  C   UNL     1      -2.869  -3.166  -1.374  0.00  0.00    +0.021 C 
ATOM     19  C   UNL     1      -1.800  -4.134   0.666  0.00  0.00    +0.021 C 
ATOM     20  C   UNL     1      -2.240  -1.674   0.625  0.00  0.00    +0.147 C 
ATOM     21  O   UNL     1      -1.359  -1.069   1.223  0.00  0.00    -0.296 OA
ATOM     22  C   UNL     1      -3.689  -1.287   0.931  0.00  0.00    +0.081 C 
ATOM     23  C   UNL     1      -4.073  -1.809   2.326  0.00  0.00    +0.018 C 
ATOM     24  C   UNL     1      -3.967   0.247   0.838  0.00  0.00    +0.127 C 
ATOM     25  H   UNL     1       0.203   1.044  -1.849  0.00  0.00    +0.149 HD
ENDROOT
BRANCH  11  26
ATOM     26  C   UNL     1       3.343   0.518  -0.717  0.00  0.00    -0.050 C 
ATOM     27  C   UNL     1       2.851  -0.229   0.500  0.00  0.00    +0.041 C 
ATOM     28  C   UNL     1       4.663   0.632  -1.000  0.00  0.00    +0.029 C 
BRANCH  28  29
ATOM     29  C   UNL     1       5.786   0.011  -0.258  0.00  0.00    +0.071 A 
ATOM     30  C   UNL     1       7.106   0.154  -0.676  0.00  0.00    +0.074 A 
ATOM     31  S   UNL     1       8.089  -0.700   0.390  0.00  0.00    -0.080 S 
ATOM     32  C   UNL     1       6.801  -1.225   1.326  0.00  0.00    +0.076 A 
ATOM     33  C   UNL     1       6.923  -2.058   2.555  0.00  0.00    +0.073 C 
ATOM     34  N   UNL     1       5.626  -0.755   0.857  0.00  0.00    -0.245 NA
ENDBRANCH  28  29
ENDBRANCH  11  26
BRANCH  16  35
ATOM     35  O   UNL     1       0.545  -2.472   0.118  0.00  0.00    -0.390 OA
ATOM     36  H   UNL     1       1.050  -3.317   0.261  0.00  0.00    +0.210 HD
ENDBRANCH  16  35
BRANCH  24  37
ATOM     37  O   UNL     1      -3.174   0.952   1.763  0.00  0.00    -0.391 OA
ATOM     38  H   UNL     1      -3.697   1.049   2.599  0.00  0.00    +0.210 HD
ENDBRANCH  24  37
TORSDOF 4
