REMARK  Name = 
REMARK  28 active torsions:
REMARK  status: ('A' for Active; 'I' for Inactive)
REMARK    1  A    between atoms: C_1  and  O_2
REMARK    2  A    between atoms: O_2  and  C_3
REMARK    3  A    between atoms: C_4  and  O_5
REMARK    4  A    between atoms: O_5  and  C_6
REMARK    5  A    between atoms: C_6  and  C_8
REMARK    6  A    between atoms: C_13  and  C_14
REMARK    7  A    between atoms: C_20  and  O_21
REMARK    8  A    between atoms: C_22  and  C_23
REMARK    9  A    between atoms: C_25  and  C_26
REMARK   10  A    between atoms: C_26  and  C_27
REMARK   11  A    between atoms: C_29  and  O_30
REMARK   12  A    between atoms: O_30  and  C_31
REMARK   13  A    between atoms: C_33  and  C_34
REMARK   14  A    between atoms: C_35  and  O_36
REMARK   15  A    between atoms: O_36  and  C_37
REMARK   16  A    between atoms: C_39  and  C_40
REMARK   17  A    between atoms: C_41  and  O_42
REMARK   18  A    between atoms: O_42  and  C_43
REMARK   19  A    between atoms: C_43  and  C_45
REMARK   20  A    between atoms: C_45  and  C_46
REMARK   21  A    between atoms: C_46  and  C_47
REMARK   22  A    between atoms: C_46  and  C_48
REMARK   23  A    between atoms: C_49  and  C_50
REMARK   24  A    between atoms: C_49  and  O_51
REMARK   25  A    between atoms: C_53  and  N_54
REMARK   26  A    between atoms: N_54  and  C_55
REMARK   27  A    between atoms: N_54  and  C_56
REMARK   28  A    between atoms: C_57  and  O_58
REMARK                            x       y       z     vdW  Elec       q    Type
REMARK                         _______ _______ _______ _____ _____    ______ ____
ROOT
ATOM      1  O   UNL     1      -1.676  -0.866   0.167  0.00  0.00    -0.343 OA
ENDROOT
BRANCH   1  20
ATOM      2  C   UNL     1      -2.510   0.423  -1.678  0.00  0.00    +0.188 C 
ATOM      3  C   UNL     1      -2.886   1.615  -0.720  0.00  0.00    +0.218 C 
ATOM      4  C   UNL     1      -3.438   2.869  -1.447  0.00  0.00    +0.167 C 
ATOM      5  C   UNL     1      -4.896   2.797  -1.858  0.00  0.00    +0.311 C 
ATOM      6  O   UNL     1      -5.358   1.758  -2.414  0.00  0.00    -0.251 OA
ATOM      7  O   UNL     1      -5.704   3.928  -1.684  0.00  0.00    -0.461 OA
ATOM      8  C   UNL     1      -6.993   4.082  -2.312  0.00  0.00    +0.177 C 
ATOM      9  C   UNL     1      -7.095   5.495  -2.905  0.00  0.00    +0.052 C 
ATOM     10  C   UNL     1      -8.122   3.814  -1.293  0.00  0.00    +0.071 C 
ATOM     11  C   UNL     1      -7.949   2.515  -0.538  0.00  0.00    -0.023 C 
ATOM     12  C   UNL     1      -7.908   1.312  -1.138  0.00  0.00    -0.004 C 
ATOM     13  C   UNL     1      -7.477   0.077  -0.428  0.00  0.00    -0.002 C 
ATOM     14  C   UNL     1      -6.804   0.095   0.735  0.00  0.00    +0.004 C 
ATOM     15  C   UNL     1      -6.711  -1.125   1.601  0.00  0.00    +0.140 C 
ATOM     16  C   UNL     1      -5.810  -2.248   1.007  0.00  0.00    +0.019 C 
ATOM     17  C   UNL     1      -5.887  -3.467   1.934  0.00  0.00    +0.010 C 
ATOM     18  C   UNL     1      -4.310  -1.881   0.740  0.00  0.00    +0.012 C 
ATOM     19  C   UNL     1      -3.967  -1.517  -0.740  0.00  0.00    +0.028 C 
ATOM     20  C   UNL     1      -2.491  -0.970  -0.989  0.00  0.00    +0.157 C 
BRANCH   2  22
ATOM     21  C   UNL     1      -2.625   0.300  -4.025  0.00  0.00    +0.194 C 
ATOM     22  O   UNL     1      -3.357   0.367  -2.818  0.00  0.00    -0.374 OA
ENDBRANCH   2  22
BRANCH  15  23
ATOM     23  O   UNL     1      -6.265  -0.744   2.900  0.00  0.00    -0.387 OA
ATOM     24  H   UNL     1      -6.852  -1.201   3.554  0.00  0.00    +0.210 HD
ENDBRANCH  15  23
BRANCH   3  25
ATOM     25  O   UNL     1      -3.753   1.168   0.323  0.00  0.00    -0.458 OA
BRANCH  25  26
ATOM     26  C   UNL     1      -4.039   1.929   1.457  0.00  0.00    +0.304 C 
ATOM     27  O   UNL     1      -4.856   2.883   1.359  0.00  0.00    -0.251 OA
ATOM     28  C   UNL     1      -3.583   1.472   2.810  0.00  0.00    +0.136 C 
ENDBRANCH  25  26
ENDBRANCH   3  25
BRANCH  19  29
ATOM     29  C   UNL     1      -4.284  -2.648  -1.752  0.00  0.00    +0.076 C 
BRANCH  29  30
ATOM     30  C   UNL     1      -3.512  -3.898  -1.469  0.00  0.00    +0.223 C 
ATOM     31  O   UNL     1      -2.882  -4.481  -2.350  0.00  0.00    -0.301 OA
ENDBRANCH  29  30
ENDBRANCH  19  29
ENDBRANCH   1  20
BRANCH   1  32
ATOM     32  C   UNL     1      -0.897  -2.022   0.464  0.00  0.00    +0.281 C 
ATOM     33  O   UNL     1      -0.423  -1.926   1.795  0.00  0.00    -0.343 OA
ATOM     34  C   UNL     1       0.589  -0.936   1.999  0.00  0.00    +0.149 C 
ATOM     35  C   UNL     1       0.013   0.474   2.216  0.00  0.00    +0.041 C 
ATOM     36  C   UNL     1       1.780  -0.971   1.003  0.00  0.00    +0.169 C 
ATOM     37  C   UNL     1       1.366  -1.235  -0.486  0.00  0.00    +0.121 C 
ATOM     38  C   UNL     1       0.282  -2.331  -0.507  0.00  0.00    +0.190 C 
BRANCH  37  39
ATOM     39  N   UNL     1       0.915  -0.029  -1.268  0.00  0.00    -0.301 NA
ATOM     40  C   UNL     1       1.630   1.216  -0.958  0.00  0.00    +0.105 C 
ATOM     41  C   UNL     1       1.069  -0.267  -2.728  0.00  0.00    +0.105 C 
ENDBRANCH  37  39
BRANCH  38  42
ATOM     42  O   UNL     1       0.857  -3.587  -0.222  0.00  0.00    -0.385 OA
ATOM     43  H   UNL     1       0.908  -3.700   0.766  0.00  0.00    +0.210 HD
ENDBRANCH  38  42
BRANCH  36  44
ATOM     44  O   UNL     1       2.685  -1.996   1.427  0.00  0.00    -0.344 OA
BRANCH  44  45
ATOM     45  C   UNL     1       4.040  -1.585   1.327  0.00  0.00    +0.254 C 
ATOM     46  O   UNL     1       4.854  -2.751   1.231  0.00  0.00    -0.345 OA
ATOM     47  C   UNL     1       6.248  -2.467   1.117  0.00  0.00    +0.162 C 
ATOM     48  C   UNL     1       6.754  -2.975  -0.230  0.00  0.00    +0.042 C 
ATOM     49  C   UNL     1       6.646  -0.974   1.383  0.00  0.00    +0.236 C 
ATOM     50  C   UNL     1       5.965  -0.510   2.695  0.00  0.00    +0.107 C 
ATOM     51  C   UNL     1       6.250   0.985   2.956  0.00  0.00    +0.045 C 
ATOM     52  C   UNL     1       4.431  -0.751   2.576  0.00  0.00    +0.099 C 
BRANCH  50  53
ATOM     53  O   UNL     1       6.444  -1.277   3.779  0.00  0.00    -0.385 OA
ATOM     54  H   UNL     1       7.419  -1.114   3.861  0.00  0.00    +0.210 HD
ENDBRANCH  50  53
BRANCH  49  55
ATOM     55  O   UNL     1       8.066  -0.806   1.462  0.00  0.00    -0.456 OA
BRANCH  55  56
ATOM     56  C   UNL     1       8.840  -0.459   0.350  0.00  0.00    +0.308 C 
ATOM     57  O   UNL     1       8.333  -0.423  -0.804  0.00  0.00    -0.251 OA
BRANCH  56  58
ATOM     58  C   UNL     1      10.306  -0.184   0.532  0.00  0.00    +0.123 C 
BRANCH  58  59
ATOM     59  C   UNL     1      10.812   0.919  -0.427  0.00  0.00    -0.007 C 
ATOM     60  C   UNL     1      10.207   2.286  -0.077  0.00  0.00    +0.008 C 
ATOM     61  C   UNL     1      12.343   0.983  -0.385  0.00  0.00    +0.008 C 
ENDBRANCH  58  59
ENDBRANCH  56  58
ENDBRANCH  55  56
ENDBRANCH  49  55
ENDBRANCH  44  45
ENDBRANCH  36  44
ENDBRANCH   1  32
TORSDOF 17
