REMARK  Name = 
REMARK  17 active torsions:
REMARK  status: ('A' for Active; 'I' for Inactive)
REMARK    1  A    between atoms: N_1  and  C_2
REMARK    2  A    between atoms: C_2  and  C_3
REMARK    3  A    between atoms: C_5  and  O_6
REMARK    4  A    between atoms: O_6  and  C_7
REMARK    5  A    between atoms: C_8  and  N_9
REMARK    6  A    between atoms: C_11  and  N_12
REMARK    7  A    between atoms: C_13  and  O_14
REMARK    8  A    between atoms: O_14  and  C_15
REMARK    9  A    between atoms: C_17  and  C_18
REMARK   10  A    between atoms: C_18  and  O_19
REMARK   11  A    between atoms: C_20  and  O_21
REMARK   12  A    between atoms: C_22  and  N_23
REMARK   13  A    between atoms: C_24  and  O_25
REMARK   14  A    between atoms: C_26  and  O_27
REMARK   15  A    between atoms: C_28  and  O_29
REMARK   16  A    between atoms: C_30  and  O_31
REMARK   17  A    between atoms: C_32  and  O_33
REMARK                            x       y       z     vdW  Elec       q    Type
REMARK                         _______ _______ _______ _____ _____    ______ ____
ROOT
ATOM      1  C   UNL     1       1.091   1.044  -0.372  0.00  0.00    +0.169 C 
ATOM      2  C   UNL     1       1.165   2.576  -0.568  0.00  0.00    +0.084 C 
ATOM      3  C   UNL     1      -0.208   3.142  -0.963  0.00  0.00    +0.042 C 
ATOM      4  C   UNL     1      -1.278   2.784   0.087  0.00  0.00    +0.084 C 
ATOM      5  C   UNL     1      -1.359   1.257   0.295  0.00  0.00    +0.169 C 
ATOM      6  C   UNL     1       0.023   0.691   0.684  0.00  0.00    +0.175 C 
ENDROOT
BRANCH   2   7
ATOM      7  N   UNL     1       2.150   2.931  -1.593  0.00  0.00    -0.325 NA
ATOM      8  H   UNL     1       1.978   2.365  -2.456  0.00  0.00    +0.119 HD
ATOM      9  H   UNL     1       3.106   2.691  -1.244  0.00  0.00    +0.119 HD
ENDBRANCH   2   7
BRANCH   4  10
ATOM     10  N   UNL     1      -2.589   3.307  -0.309  0.00  0.00    -0.325 NA
ATOM     11  H   UNL     1      -2.830   2.956  -1.264  0.00  0.00    +0.119 HD
ATOM     12  H   UNL     1      -2.535   4.351  -0.360  0.00  0.00    +0.119 HD
ENDBRANCH   4  10
BRANCH   6  13
ATOM     13  O   UNL     1      -0.059  -0.707   0.797  0.00  0.00    -0.387 OA
ATOM     14  H   UNL     1      -0.384  -0.910   1.713  0.00  0.00    +0.210 HD
ENDBRANCH   6  13
BRANCH   1  15
ATOM     15  O   UNL     1       2.356   0.587   0.088  0.00  0.00    -0.341 OA
BRANCH  15  18
ATOM     16  C   UNL     1       5.154  -0.237  -0.326  0.00  0.00    +0.166 C 
ATOM     17  O   UNL     1       4.075  -0.211  -1.244  0.00  0.00    -0.342 OA
ATOM     18  C   UNL     1       2.848  -0.551  -0.611  0.00  0.00    +0.282 C 
ATOM     19  C   UNL     1       2.971  -1.772   0.352  0.00  0.00    +0.201 C 
ATOM     20  C   UNL     1       4.225  -2.597   0.010  0.00  0.00    +0.179 C 
ATOM     21  C   UNL     1       5.491  -1.706   0.054  0.00  0.00    +0.176 C 
BRANCH  19  22
ATOM     22  O   UNL     1       3.035  -1.339   1.689  0.00  0.00    -0.384 OA
ATOM     23  H   UNL     1       2.815  -2.123   2.257  0.00  0.00    +0.210 HD
ENDBRANCH  19  22
BRANCH  20  24
ATOM     24  O   UNL     1       4.068  -3.152  -1.272  0.00  0.00    -0.386 OA
ATOM     25  H   UNL     1       4.713  -3.903  -1.342  0.00  0.00    +0.210 HD
ENDBRANCH  20  24
BRANCH  21  26
ATOM     26  O   UNL     1       6.036  -1.744   1.350  0.00  0.00    -0.387 OA
ATOM     27  H   UNL     1       6.999  -1.516   1.268  0.00  0.00    +0.210 HD
ENDBRANCH  21  26
BRANCH  16  28
ATOM     28  C   UNL     1       6.368   0.465  -0.953  0.00  0.00    +0.112 C 
BRANCH  28  29
ATOM     29  N   UNL     1       6.096   1.889  -1.129  0.00  0.00    -0.328 NA
ATOM     30  H   UNL     1       6.989   2.349  -1.422  0.00  0.00    +0.118 HD
ATOM     31  H   UNL     1       5.431   2.002  -1.930  0.00  0.00    +0.118 HD
ENDBRANCH  28  29
ENDBRANCH  16  28
ENDBRANCH  15  18
ENDBRANCH   1  15
BRANCH   5  32
ATOM     32  O   UNL     1      -2.274   0.988   1.348  0.00  0.00    -0.341 OA
BRANCH  32  33
ATOM     33  C   UNL     1      -3.398   0.263   0.886  0.00  0.00    +0.281 C 
ATOM     34  O   UNL     1      -3.008  -1.057   0.548  0.00  0.00    -0.341 OA
ATOM     35  C   UNL     1      -4.029  -1.750  -0.163  0.00  0.00    +0.177 C 
ATOM     36  C   UNL     1      -5.477  -1.421   0.320  0.00  0.00    +0.165 C 
ATOM     37  C   UNL     1      -5.440  -0.984   1.800  0.00  0.00    +0.116 C 
ATOM     38  C   UNL     1      -4.480   0.220   1.993  0.00  0.00    +0.189 C 
BRANCH  37  39
ATOM     39  N   UNL     1      -6.778  -0.643   2.295  0.00  0.00    -0.323 NA
ATOM     40  H   UNL     1      -7.218   0.055   1.654  0.00  0.00    +0.119 HD
ATOM     41  H   UNL     1      -7.373  -1.502   2.280  0.00  0.00    +0.119 HD
ENDBRANCH  37  39
BRANCH  36  42
ATOM     42  O   UNL     1      -6.300  -2.553   0.187  0.00  0.00    -0.388 OA
ATOM     43  H   UNL     1      -6.523  -2.635  -0.778  0.00  0.00    +0.210 HD
ENDBRANCH  36  42
BRANCH  38  44
ATOM     44  O   UNL     1      -3.906   0.184   3.278  0.00  0.00    -0.385 OA
ATOM     45  H   UNL     1      -3.301  -0.604   3.311  0.00  0.00    +0.210 HD
ENDBRANCH  38  44
BRANCH  35  46
ATOM     46  C   UNL     1      -3.862  -1.542  -1.676  0.00  0.00    +0.190 C 
BRANCH  46  47
ATOM     47  O   UNL     1      -2.556  -1.882  -2.058  0.00  0.00    -0.392 OA
ATOM     48  H   UNL     1      -2.505  -1.735  -3.040  0.00  0.00    +0.210 HD
ENDBRANCH  46  47
ENDBRANCH  35  46
ENDBRANCH  32  33
ENDBRANCH   5  32
TORSDOF 17
