REMARK  Name = 
REMARK  3 active torsions:
REMARK  status: ('A' for Active; 'I' for Inactive)
REMARK    1  A    between atoms: C_1  and  N_2
REMARK    2  A    between atoms: C_10  and  C_21
REMARK    3  A    between atoms: C_12  and  C_13
REMARK                            x       y       z     vdW  Elec       q    Type
REMARK                         _______ _______ _______ _____ _____    ______ ____
ROOT
ATOM      1  C   UNL     1       3.653   0.638  -1.103  0.00  0.00    +0.138 C 
ATOM      2  N   UNL     1       2.378  -0.010  -0.788  0.00  0.00    -0.273 N 
ATOM      3  C   UNL     1       1.895  -0.078   0.574  0.00  0.00    +0.045 A 
ATOM      4  C   UNL     1       0.505   0.004   0.914  0.00  0.00    +0.042 A 
ATOM      5  C   UNL     1       0.140  -0.116   2.274  0.00  0.00    +0.031 A 
ATOM      6  C   UNL     1       1.097  -0.280   3.273  0.00  0.00    +0.042 A 
ATOM      7 CL   UNL     1       0.601  -0.418   4.950  0.00  0.00    -0.084 Cl
ATOM      8  C   UNL     1       2.445  -0.342   2.940  0.00  0.00    +0.022 A 
ATOM      9  C   UNL     1       2.839  -0.246   1.608  0.00  0.00    +0.025 A 
ATOM     10  C   UNL     1      -0.652   0.173  -0.090  0.00  0.00    +0.235 C 
ATOM     11  O   UNL     1      -1.532   1.177   0.447  0.00  0.00    -0.464 OA
ATOM     12  C   UNL     1      -1.345   2.552   0.262  0.00  0.00    +0.103 C 
ATOM     13  C   UNL     1      -2.046   3.514   1.166  0.00  0.00    +0.086 C 
ATOM     14  C   UNL     1      -0.580   2.991  -0.736  0.00  0.00    +0.108 C 
ATOM     15  C   UNL     1       0.016   2.021  -1.653  0.00  0.00    +0.246 C 
ATOM     16  O   UNL     1       0.688   2.434  -2.636  0.00  0.00    -0.270 OA
ATOM     17  N   UNL     1      -0.173   0.608  -1.423  0.00  0.00    -0.243 N 
ATOM     18  C   UNL     1       0.429  -0.363  -2.346  0.00  0.00    +0.208 C 
ATOM     19  C   UNL     1       1.753  -0.780  -1.817  0.00  0.00    +0.237 C 
ATOM     20  O   UNL     1       2.363  -1.750  -2.342  0.00  0.00    -0.274 OA
ENDROOT
BRANCH  10  21
ATOM     21  C   UNL     1      -1.467  -1.117  -0.219  0.00  0.00    +0.019 A 
ATOM     22  C   UNL     1      -0.901  -2.391   0.016  0.00  0.00    +0.009 A 
ATOM     23  C   UNL     1      -1.660  -3.551  -0.161  0.00  0.00    +0.000 A 
ATOM     24  C   UNL     1      -2.984  -3.464  -0.594  0.00  0.00    +0.000 A 
ATOM     25  C   UNL     1      -3.549  -2.216  -0.862  0.00  0.00    +0.000 A 
ATOM     26  C   UNL     1      -2.796  -1.052  -0.686  0.00  0.00    +0.009 A 
ENDBRANCH  10  21
TORSDOF 1
