REMARK  Name = 
REMARK  3 active torsions:
REMARK  status: ('A' for Active; 'I' for Inactive)
REMARK    1  A    between atoms: C_1  and  N_2
REMARK    2  A    between atoms: N_2  and  C_3
REMARK    3  A    between atoms: C_3  and  C_10
REMARK                            x       y       z     vdW  Elec       q    Type
REMARK                         _______ _______ _______ _____ _____    ______ ____
ROOT
ATOM      1  C   UNL     1      -0.301   0.157  -0.193  0.00  0.00    +0.104 C 
ATOM      2  C   UNL     1      -0.811  -0.117   1.264  0.00  0.00    +0.035 C 
ATOM      3  C   UNL     1      -2.342  -0.178   1.351  0.00  0.00    +0.003 C 
ATOM      4  C   UNL     1      -2.880  -1.289   0.447  0.00  0.00    +0.008 C 
ATOM      5  C   UNL     1      -2.496  -1.042  -1.013  0.00  0.00    +0.076 C 
ATOM      6  C   UNL     1      -1.018  -0.786  -1.157  0.00  0.00    +0.158 C 
ATOM      7  O   UNL     1      -0.447  -1.198  -2.158  0.00  0.00    -0.295 OA
ENDROOT
BRANCH   1   8
ATOM      8  C   UNL     1       1.237  -0.095  -0.266  0.00  0.00    -0.002 A 
ATOM      9  C   UNL     1       2.142   0.946  -0.605  0.00  0.00    +0.007 A 
ATOM     10  C   UNL     1       3.520   0.731  -0.638  0.00  0.00    +0.000 A 
ATOM     11  C   UNL     1       4.042  -0.525  -0.358  0.00  0.00    +0.001 A 
ATOM     12  C   UNL     1       3.186  -1.581  -0.064  0.00  0.00    +0.020 A 
ATOM     13  C   UNL     1       1.799  -1.390  -0.028  0.00  0.00    +0.046 A 
ATOM     14 CL   UNL     1       0.838  -2.846   0.249  0.00  0.00    -0.083 Cl
ENDBRANCH   1   8
BRANCH   1  16
ATOM     15  C   UNL     1      -0.443   2.625   0.316  0.00  0.00    +0.102 C 
ATOM     16  N   UNL     1      -0.693   1.526  -0.630  0.00  0.00    -0.304 NA
ATOM     17  H   UNL     1      -0.288   1.750  -1.569  0.00  0.00    +0.123 HD
ENDBRANCH   1  16
TORSDOF 2
