REMARK  Name = 
REMARK  6 active torsions:
REMARK  status: ('A' for Active; 'I' for Inactive)
REMARK    1  A    between atoms: C_1  and  C_2
REMARK    2  A    between atoms: C_2  and  C_3
REMARK    3  A    between atoms: C_2  and  C_6
REMARK    4  A    between atoms: C_3  and  O_4
REMARK    5  A    between atoms: C_8  and  C_12
REMARK    6  A    between atoms: C_12  and  C_14
REMARK                            x       y       z     vdW  Elec       q    Type
REMARK                         _______ _______ _______ _____ _____    ______ ____
ROOT
ATOM      1  C   UNL     1      -2.061  -0.359   0.112  0.00  0.00    -0.033 A 
ATOM      2  C   UNL     1      -0.980   0.259   0.766  0.00  0.00    +0.016 A 
ATOM      3  C   UNL     1       0.342  -0.148   0.514  0.00  0.00    +0.023 A 
ATOM      4  C   UNL     1       0.573  -1.207  -0.381  0.00  0.00    +0.012 A 
ATOM      5  C   UNL     1      -0.495  -1.827  -1.032  0.00  0.00    +0.001 A 
ATOM      6  C   UNL     1      -1.804  -1.407  -0.791  0.00  0.00    +0.004 A 
ENDROOT
BRANCH   1   8
ATOM      7  C   UNL     1      -4.296  -1.009   1.065  0.00  0.00    +0.024 C 
ATOM      8  C   UNL     1      -3.479   0.099   0.391  0.00  0.00    +0.124 C 
BRANCH   8   9
ATOM      9  C   UNL     1      -4.139   0.584  -0.872  0.00  0.00    +0.312 C 
ATOM     10  O   UNL     1      -4.065   1.801  -1.188  0.00  0.00    -0.250 OA
BRANCH   9  11
ATOM     11  O   UNL     1      -4.788  -0.310  -1.720  0.00  0.00    -0.480 OA
ATOM     12  H   UNL     1      -5.217   0.008  -2.580  0.00  0.00    +0.295 HD
ENDBRANCH   9  11
ENDBRANCH   8   9
ENDBRANCH   1   8
BRANCH   3  13
ATOM     13  C   UNL     1       1.467   0.505   1.227  0.00  0.00    +0.193 C 
ATOM     14  O   UNL     1       1.280   0.926   2.402  0.00  0.00    -0.287 OA
BRANCH  13  15
ATOM     15  C   UNL     1       2.804   0.682   0.608  0.00  0.00    +0.022 A 
ATOM     16  C   UNL     1       2.939   0.903  -0.776  0.00  0.00    +0.012 A 
ATOM     17  C   UNL     1       4.204   1.085  -1.343  0.00  0.00    +0.001 A 
ATOM     18  C   UNL     1       5.344   1.060  -0.536  0.00  0.00    +0.000 A 
ATOM     19  C   UNL     1       5.220   0.858   0.841  0.00  0.00    +0.001 A 
ATOM     20  C   UNL     1       3.957   0.675   1.413  0.00  0.00    +0.012 A 
ENDBRANCH  13  15
ENDBRANCH   3  13
TORSDOF 5
