REMARK  Name = 
REMARK  8 active torsions:
REMARK  status: ('A' for Active; 'I' for Inactive)
REMARK    1  A    between atoms: C_1  and  C_2
REMARK    2  A    between atoms: N_7  and  C_10
REMARK    3  A    between atoms: C_13  and  O_14
REMARK    4  A    between atoms: O_14  and  C_15
REMARK    5  A    between atoms: C_15  and  C_16
REMARK    6  A    between atoms: C_19  and  C_20
REMARK    7  A    between atoms: C_19  and  C_27
REMARK    8  A    between atoms: C_20  and  N_21
REMARK                            x       y       z     vdW  Elec       q    Type
REMARK                         _______ _______ _______ _____ _____    ______ ____
ROOT
ATOM      1  C   UNL     1      -2.710   0.079   2.452  0.00  0.00    +0.185 C 
ATOM      2  C   UNL     1      -3.188   1.451   2.061  0.00  0.00    +0.198 C 
ATOM      3  O   UNL     1      -4.306   1.250   1.260  0.00  0.00    -0.341 OA
ATOM      4  C   UNL     1      -4.223  -0.082   0.787  0.00  0.00    +0.217 C 
ATOM      5  O   UNL     1      -3.278  -0.811   1.543  0.00  0.00    -0.334 OA
ENDROOT
BRANCH   4   6
ATOM      6  C   UNL     1      -5.590  -0.766   0.900  0.00  0.00    +0.031 A 
ATOM      7  C   UNL     1      -6.757   0.019   1.042  0.00  0.00    +0.012 A 
ATOM      8  C   UNL     1      -8.019  -0.572   1.101  0.00  0.00    +0.020 A 
ATOM      9  C   UNL     1      -8.149  -1.957   1.010  0.00  0.00    +0.042 A 
ATOM     10 CL   UNL     1      -9.738  -2.696   1.080  0.00  0.00    -0.083 Cl
ATOM     11  C   UNL     1      -7.015  -2.753   0.850  0.00  0.00    +0.040 A 
ATOM     12  C   UNL     1      -5.741  -2.175   0.786  0.00  0.00    +0.051 A 
ATOM     13 CL   UNL     1      -4.382  -3.269   0.539  0.00  0.00    -0.083 Cl
ENDBRANCH   4   6
BRANCH   1  14
ATOM     14  C   UNL     1      -1.185  -0.053   2.436  0.00  0.00    +0.263 C 
BRANCH  14  15
ATOM     15  O   UNL     1      -0.687   0.165   1.116  0.00  0.00    -0.489 OA
BRANCH  15  19
ATOM     16  C   UNL     1       3.359  -0.026  -0.080  0.00  0.00    +0.030 A 
ATOM     17  C   UNL     1       2.344   0.327  -0.986  0.00  0.00    +0.027 A 
ATOM     18  C   UNL     1       1.011   0.383  -0.571  0.00  0.00    +0.047 A 
ATOM     19  C   UNL     1       0.665   0.094   0.753  0.00  0.00    +0.121 A 
ATOM     20  C   UNL     1       1.676  -0.258   1.666  0.00  0.00    +0.047 A 
ATOM     21  C   UNL     1       3.010  -0.322   1.250  0.00  0.00    +0.027 A 
BRANCH  16  28
ATOM     22  C   UNL     1       9.717   1.218  -1.034  0.00  0.00    +0.109 C 
ATOM     23  C   UNL     1       8.956  -0.067  -1.160  0.00  0.00    +0.213 C 
ATOM     24  O   UNL     1       9.600  -1.133  -1.355  0.00  0.00    -0.276 OA
ATOM     25  N   UNL     1       7.514  -0.097  -1.085  0.00  0.00    -0.299 N 
ATOM     26  C   UNL     1       6.815  -1.383  -0.952  0.00  0.00    +0.126 C 
ATOM     27  C   UNL     1       5.571  -1.227  -0.072  0.00  0.00    +0.124 C 
ATOM     28  N   UNL     1       4.735  -0.099  -0.509  0.00  0.00    -0.327 N 
ATOM     29  C   UNL     1       5.253   0.864  -1.491  0.00  0.00    +0.124 C 
ATOM     30  C   UNL     1       6.740   1.145  -1.243  0.00  0.00    +0.126 C 
ENDBRANCH  16  28
ENDBRANCH  15  19
ENDBRANCH  14  15
ENDBRANCH   1  14
BRANCH   4  31
ATOM     31  C   UNL     1      -3.762  -0.052  -0.687  0.00  0.00    +0.193 C 
BRANCH  31  32
ATOM     32  N   UNL     1      -4.714   0.667  -1.533  0.00  0.00    -0.331 N 
ATOM     33  C   UNL     1      -5.743   0.142  -2.218  0.00  0.00    +0.107 A 
ATOM     34  C   UNL     1      -6.424   1.178  -2.816  0.00  0.00    +0.130 A 
ATOM     35  N   UNL     1      -5.829   2.349  -2.506  0.00  0.00    -0.244 NA
ATOM     36  C   UNL     1      -4.790   1.999  -1.720  0.00  0.00    +0.199 A 
ENDBRANCH  31  32
ENDBRANCH   4  31
TORSDOF 7
