REMARK  Name = 
REMARK  4 active torsions:
REMARK  status: ('A' for Active; 'I' for Inactive)
REMARK    1  A    between atoms: O_1  and  C_2
REMARK    2  A    between atoms: C_2  and  C_4
REMARK    3  A    between atoms: C_11  and  C_12
REMARK    4  A    between atoms: C_12  and  C_14
REMARK                            x       y       z     vdW  Elec       q    Type
REMARK                         _______ _______ _______ _____ _____    ______ ____
ROOT
ATOM      1  C   UNL     1      -3.394  -0.862   0.191  0.00  0.00    +0.146 C 
ATOM      2  C   UNL     1      -3.431  -0.328  -1.274  0.00  0.00    +0.042 C 
ATOM      3  C   UNL     1      -2.011   0.205  -1.600  0.00  0.00    +0.123 C 
ATOM      4  N   UNL     1      -1.262  -0.093  -0.404  0.00  0.00    -0.340 N 
ATOM      5  C   UNL     1      -1.974  -0.655   0.545  0.00  0.00    +0.033 A 
ATOM      6  C   UNL     1      -1.203  -0.925   1.655  0.00  0.00    +0.024 A 
ATOM      7  C   UNL     1       0.075  -0.475   1.320  0.00  0.00    +0.031 A 
ATOM      8  C   UNL     1       0.006   0.030   0.021  0.00  0.00    +0.090 A 
ENDROOT
BRANCH   1   9
ATOM      9  C   UNL     1      -4.291  -0.077   1.103  0.00  0.00    +0.314 C 
ATOM     10  O   UNL     1      -5.239  -0.653   1.700  0.00  0.00    -0.250 OA
BRANCH   9  11
ATOM     11  O   UNL     1      -4.087   1.289   1.283  0.00  0.00    -0.480 OA
ATOM     12  H   UNL     1      -4.689   1.828   1.893  0.00  0.00    +0.295 HD
ENDBRANCH   9  11
ENDBRANCH   1   9
BRANCH   8  13
ATOM     13  C   UNL     1       1.099   0.653  -0.755  0.00  0.00    +0.209 C 
ATOM     14  O   UNL     1       0.804   1.407  -1.722  0.00  0.00    -0.285 OA
BRANCH  13  15
ATOM     15  C   UNL     1       2.526   0.435  -0.425  0.00  0.00    +0.024 A 
ATOM     16  C   UNL     1       2.986  -0.820   0.015  0.00  0.00    +0.012 A 
ATOM     17  C   UNL     1       4.339  -1.014   0.306  0.00  0.00    +0.001 A 
ATOM     18  C   UNL     1       5.248   0.035   0.149  0.00  0.00    +0.000 A 
ATOM     19  C   UNL     1       4.806   1.280  -0.306  0.00  0.00    +0.001 A 
ATOM     20  C   UNL     1       3.453   1.479  -0.598  0.00  0.00    +0.012 A 
ENDBRANCH  13  15
ENDBRANCH   8  13
TORSDOF 4
