REMARK  Name = 
REMARK  1 active torsions:
REMARK  status: ('A' for Active; 'I' for Inactive)
REMARK    1  A    between atoms: C_1  and  N_2
REMARK                            x       y       z     vdW  Elec       q    Type
REMARK                         _______ _______ _______ _____ _____    ______ ____
ROOT
ATOM      1  C   UNL     1       4.375  -0.213   0.224  0.00  0.00    +0.104 C 
ATOM      2  N   UNL     1       3.467  -1.360   0.387  0.00  0.00    -0.305 NA
ATOM      3  C   UNL     1       2.675  -1.291   1.632  0.00  0.00    +0.088 C 
ATOM      4  C   UNL     1       1.571  -0.226   1.581  0.00  0.00    +0.047 C 
ATOM      5  C   UNL     1       0.721  -0.387   0.337  0.00  0.00    -0.059 C 
ATOM      6  C   UNL     1       1.504  -0.540  -0.952  0.00  0.00    +0.047 C 
ATOM      7  C   UNL     1       2.616  -1.589  -0.797  0.00  0.00    +0.088 C 
ATOM      8  C   UNL     1      -0.616  -0.122   0.335  0.00  0.00    -0.010 C 
ATOM      9  C   UNL     1      -1.377   0.181   1.570  0.00  0.00    +0.000 A 
ATOM     10  C   UNL     1      -2.137   1.343   1.748  0.00  0.00    +0.063 A 
ATOM     11  S   UNL     1      -2.930   1.227   3.227  0.00  0.00    -0.093 S 
ATOM     12  C   UNL     1      -2.347  -0.292   3.647  0.00  0.00    +0.046 A 
ATOM     13  C   UNL     1      -1.522  -0.738   2.624  0.00  0.00    +0.017 A 
ATOM     14  C   UNL     1      -2.289   2.470   0.802  0.00  0.00    +0.175 C 
ATOM     15  O   UNL     1      -3.046   3.431   1.106  0.00  0.00    -0.291 OA
ATOM     16  C   UNL     1      -1.554   2.509  -0.510  0.00  0.00    +0.116 C 
ATOM     17  C   UNL     1      -1.860   1.279  -1.331  0.00  0.00    -0.032 A 
ATOM     18  C   UNL     1      -2.647   1.379  -2.490  0.00  0.00    +0.004 A 
ATOM     19  C   UNL     1      -2.962   0.237  -3.231  0.00  0.00    +0.000 A 
ATOM     20  C   UNL     1      -2.506  -1.016  -2.817  0.00  0.00    +0.001 A 
ATOM     21  C   UNL     1      -1.730  -1.131  -1.661  0.00  0.00    +0.009 A 
ATOM     22  C   UNL     1      -1.386   0.012  -0.923  0.00  0.00    -0.014 A 
ENDROOT
TORSDOF 0
