REMARK  Name = 
REMARK  4 active torsions:
REMARK  status: ('A' for Active; 'I' for Inactive)
REMARK    1  A    between atoms: CB_1  and  CA_2
REMARK    2  A    between atoms: CA_2  and  N_3
REMARK    3  A    between atoms: CA_2  and  C_4
REMARK    4  A    between atoms: C_4  and  O_5
REMARK                            x       y       z     vdW  Elec       q    Type
REMARK                         _______ _______ _______ _____ _____    ______ ____
ROOT
ATOM      1  CB  ALA A   1      -0.955   0.751  -0.655  0.00  0.00    +0.035 C 
ATOM      2  CA  ALA A   1      -0.287  -0.516  -0.107  0.00  0.00    +0.158 C 
ENDROOT
BRANCH   2   3
ATOM      3  N   ALA A   1      -0.595  -0.706   1.311  0.00  0.00    -0.319 NA
ATOM      4  H1  ALA A   1      -1.625  -0.856   1.411  0.00  0.00    +0.119 HD
ATOM      5  H2  ALA A   1      -0.356   0.164   1.841  0.00  0.00    +0.119 HD
ENDBRANCH   2   3
BRANCH   2   6
ATOM      6  C   ALA A   1       1.200  -0.450  -0.300  0.00  0.00    +0.321 C 
ATOM      7  OXT ALA A   1       1.769  -1.238  -1.102  0.00  0.00    -0.249 OA
BRANCH   6   8
ATOM      8  O   ALA A   1       1.953   0.493   0.395  0.00  0.00    -0.480 OA
ATOM      9  H   ALA A   1       2.957   0.552   0.269  0.00  0.00    +0.295 HD
ENDBRANCH   6   8
ENDBRANCH   2   6
TORSDOF 3
