REMARK  Name = 
REMARK  7 active torsions:
REMARK  status: ('A' for Active; 'I' for Inactive)
REMARK    1  A    between atoms: N_1  and  CA_2
REMARK    2  A    between atoms: CA_2  and  CB_3
REMARK    3  A    between atoms: CA_2  and  C_10
REMARK    4  A    between atoms: CB_3  and  CG_4
REMARK    5  A    between atoms: CG_4  and  CD_5
REMARK    6  A    between atoms: CD_5  and  NE_6
REMARK    7  A    between atoms: C_10  and  O_11
REMARK                            x       y       z     vdW  Elec       q    Type
REMARK                         _______ _______ _______ _____ _____    ______ ____
ROOT
ATOM      1  CG  ARG A   1       0.468  -0.905   0.402  0.00  0.00    +0.023 C 
ENDROOT
BRANCH   1   2
ATOM      2  CB  ARG A   1       1.652  -0.828  -0.580  0.00  0.00    +0.031 C 
BRANCH   2   3
ATOM      3  CA  ARG A   1       2.078   0.609  -0.954  0.00  0.00    +0.161 C 
BRANCH   3   4
ATOM      4  N   ARG A   1       3.193   0.561  -1.901  0.00  0.00    -0.318 NA
ATOM      5  H1  ARG A   1       3.433   1.541  -2.178  0.00  0.00    +0.119 HD
ATOM      6  H2  ARG A   1       2.864   0.090  -2.775  0.00  0.00    +0.119 HD
ENDBRANCH   3   4
BRANCH   3   7
ATOM      7  C   ARG A   1       2.498   1.380   0.267  0.00  0.00    +0.322 C 
ATOM      8  OXT ARG A   1       1.806   2.355   0.666  0.00  0.00    -0.249 OA
BRANCH   7   9
ATOM      9  O   ARG A   1       3.642   1.007   0.967  0.00  0.00    -0.480 OA
ATOM     10  H   ARG A   1       3.932   1.513   1.795  0.00  0.00    +0.295 HD
ENDBRANCH   7   9
ENDBRANCH   3   7
ENDBRANCH   2   3
ENDBRANCH   1   2
BRANCH   1  11
ATOM     11  CD  ARG A   1      -0.846  -0.392  -0.204  0.00  0.00    +0.115 C 
BRANCH  11  12
ATOM     12  NE  ARG A   1      -1.968  -0.634   0.704  0.00  0.00    -0.356 N 
ATOM     13  CZ  ARG A   1      -3.310  -0.256   0.369  0.00  0.00    +0.188 C 
ATOM     14  NH1 ARG A   1      -4.370  -0.513   1.294  0.00  0.00    -0.370 N 
ATOM     15  NH2 ARG A   1      -3.564   0.317  -0.765  0.00  0.00    -0.269 NA
ATOM     16  HE  ARG A   1      -1.799  -1.092   1.629  0.00  0.00    +0.162 HD
ATOM     17 HH11 ARG A   1      -5.354  -0.245   1.070  0.00  0.00    +0.159 HD
ATOM     18 HH12 ARG A   1      -4.172  -0.974   2.210  0.00  0.00    +0.159 HD
ATOM     19  HH2 ARG A   1      -4.532   0.602  -1.033  0.00  0.00    +0.190 HD
ENDBRANCH  11  12
ENDBRANCH   1  11
TORSDOF 7
