REMARK  Name = 
REMARK  6 active torsions:
REMARK  status: ('A' for Active; 'I' for Inactive)
REMARK    1  A    between atoms: N_1  and  CA_2
REMARK    2  A    between atoms: CA_2  and  CB_3
REMARK    3  A    between atoms: CA_2  and  C_7
REMARK    4  A    between atoms: CB_3  and  CG_4
REMARK    5  A    between atoms: CG_4  and  OD1_5
REMARK    6  A    between atoms: C_7  and  O_8
REMARK                            x       y       z     vdW  Elec       q    Type
REMARK                         _______ _______ _______ _____ _____    ______ ____
ROOT
ATOM      1  CA  ASP A   1      -0.278  -0.286   0.324  0.00  0.00    +0.171 C 
ENDROOT
BRANCH   1   2
ATOM      2  N   ASP A   1      -0.312  -1.626  -0.267  0.00  0.00    -0.318 NA
ATOM      3  H1  ASP A   1      -0.721  -2.290   0.430  0.00  0.00    +0.119 HD
ATOM      4  H2  ASP A   1      -0.940  -1.625  -1.105  0.00  0.00    +0.119 HD
ENDBRANCH   1   2
BRANCH   1   5
ATOM      5  C   ASP A   1      -1.664   0.167   0.700  0.00  0.00    +0.322 C 
ATOM      6  OXT ASP A   1      -2.559   0.280  -0.181  0.00  0.00    -0.249 OA
BRANCH   5   7
ATOM      7  O   ASP A   1      -1.958   0.465   2.027  0.00  0.00    -0.480 OA
ATOM      8  H   ASP A   1      -2.884   0.772   2.298  0.00  0.00    +0.295 HD
ENDBRANCH   5   7
ENDBRANCH   1   5
BRANCH   1   9
ATOM      9  CB  ASP A   1       0.372   0.717  -0.643  0.00  0.00    +0.150 C 
BRANCH   9  10
ATOM     10  CG  ASP A   1       1.801   0.358  -0.914  0.00  0.00    +0.307 C 
ATOM     11  OD2 ASP A   1       2.101  -0.316  -1.935  0.00  0.00    -0.251 OA
BRANCH  10  12
ATOM     12  OD1 ASP A   1       2.792   0.737  -0.014  0.00  0.00    -0.481 OA
ATOM     13  HD1 ASP A   1       3.762   0.489  -0.175  0.00  0.00    +0.295 HD
ENDBRANCH  10  12
ENDBRANCH   9  10
ENDBRANCH   1   9
TORSDOF 6
