REMARK  Name = 
REMARK  5 active torsions:
REMARK  status: ('A' for Active; 'I' for Inactive)
REMARK    1  A    between atoms: N_1  and  CA_2
REMARK    2  A    between atoms: CA_2  and  CB_3
REMARK    3  A    between atoms: CA_2  and  C_7
REMARK    4  A    between atoms: CB_3  and  CG_4
REMARK    5  A    between atoms: C_7  and  O_8
REMARK                            x       y       z     vdW  Elec       q    Type
REMARK                         _______ _______ _______ _____ _____    ______ ____
ROOT
ATOM      1  CA  ASN A   1      -0.471  -0.017   0.337  0.00  0.00    +0.169 C 
ENDROOT
BRANCH   1   2
ATOM      2  N   ASN A   1      -0.796  -1.247   1.065  0.00  0.00    -0.318 NA
ATOM      3  H1  ASN A   1      -1.332  -1.893   0.441  0.00  0.00    +0.119 HD
ATOM      4  H2  ASN A   1      -1.415  -1.004   1.873  0.00  0.00    +0.119 HD
ENDBRANCH   1   2
BRANCH   1   5
ATOM      5  C   ASN A   1      -1.723   0.651  -0.168  0.00  0.00    +0.322 C 
ATOM      6  OXT ASN A   1      -2.490   0.048  -0.967  0.00  0.00    -0.249 OA
BRANCH   5   7
ATOM      7  O   ASN A   1      -2.033   1.942   0.247  0.00  0.00    -0.480 OA
ATOM      8  H   ASN A   1      -2.870   2.408  -0.083  0.00  0.00    +0.295 HD
ENDBRANCH   5   7
ENDBRANCH   1   5
BRANCH   1   9
ATOM      9  CB  ASN A   1       0.487  -0.314  -0.828  0.00  0.00    +0.125 C 
BRANCH   9  10
ATOM     10  CG  ASN A   1       1.797  -0.855  -0.329  0.00  0.00    +0.213 C 
ATOM     11  ND2 ASN A   1       2.800   0.018   0.188  0.00  0.00    -0.329 N 
ATOM     12  OD1 ASN A   1       2.004  -2.097  -0.337  0.00  0.00    -0.276 OA
ATOM     13 HD21 ASN A   1       2.650   1.051   0.224  0.00  0.00    +0.145 HD
ATOM     14 HD22 ASN A   1       2.650   1.051   0.224  0.00  0.00    +0.145 HD
ENDBRANCH   9  10
ENDBRANCH   1   9
TORSDOF 5
