REMARK  Name = 
REMARK  8 active torsions:
REMARK  status: ('A' for Active; 'I' for Inactive)
REMARK    1  A    between atoms: C_1  and  N_2
REMARK    2  A    between atoms: N_2  and  C_3
REMARK    3  A    between atoms: N_2  and  C_4
REMARK    4  A    between atoms: N_2  and  C_5
REMARK    5  A    between atoms: C_5  and  C_6
REMARK    6  A    between atoms: C_6  and  O_7
REMARK    7  A    between atoms: C_6  and  C_8
REMARK    8  A    between atoms: C_8  and  C_9
REMARK                            x       y       z     vdW  Elec       q    Type
REMARK                         _______ _______ _______ _____ _____    ______ ____
ROOT
ATOM      1  C   UNL     1       1.214   0.172  -0.010  0.00  0.00    +0.109 C 
ENDROOT
BRANCH   1   2
ATOM      2  O   UNL     1       1.396   1.092  -1.060  0.00  0.00    -0.393 OA
ATOM      3  H   UNL     1       1.503   0.574  -1.901  0.00  0.00    +0.210 HD
ENDBRANCH   1   2
BRANCH   1   4
ATOM      4  C   UNL     1      -0.073  -0.681  -0.226  0.00  0.00    -0.044 C 
BRANCH   4   6
ATOM      5  C   UNL     1      -1.533   0.370   1.452  0.00  0.00    -0.093 C 
ATOM      6  N   UNL     1      -1.374   0.018   0.019  0.00  0.00    +0.376 N 
ATOM      7  C   UNL     1      -1.508   1.240  -0.810  0.00  0.00    -0.093 C 
ATOM      8  C   UNL     1      -2.468  -0.914  -0.350  0.00  0.00    -0.093 C 
ENDBRANCH   4   6
ENDBRANCH   1   4
BRANCH   1   9
ATOM      9  C   UNL     1       2.452  -0.739   0.116  0.00  0.00    +0.154 C 
BRANCH   9  10
ATOM     10  C   UNL     1       3.691   0.065   0.364  0.00  0.00    +0.358 C 
ATOM     11  O   UNL     1       4.002   0.482   1.652  0.00  0.00    -0.246 OA
ATOM     12  O   UNL     1       4.434   0.398  -0.597  0.00  0.00    -0.246 OA
ENDBRANCH   9  10
ENDBRANCH   1   9
TORSDOF 5
