REMARK  Name = 
REMARK  7 active torsions:
REMARK  status: ('A' for Active; 'I' for Inactive)
REMARK    1  A    between atoms: N_1  and  CA_2
REMARK    2  A    between atoms: CA_2  and  C_3
REMARK    3  A    between atoms: CA_2  and  C_10
REMARK    4  A    between atoms: C_3  and  C_4
REMARK    5  A    between atoms: C_4  and  C_5
REMARK    6  A    between atoms: C_5  and  N_6
REMARK    7  A    between atoms: C_10  and  O_11
REMARK                            x       y       z     vdW  Elec       q    Type
REMARK                         _______ _______ _______ _____ _____    ______ ____
ROOT
ATOM      1  C   UNL     1      -1.287  -0.422   0.244  0.00  0.00    +0.031 C 
ENDROOT
BRANCH   1   2
ATOM      2  CA  UNL     1      -2.468   0.297  -0.450  0.00  0.00    +0.161 C 
BRANCH   2   3
ATOM      3  N   UNL     1      -2.637   1.672   0.031  0.00  0.00    -0.318 NA
ATOM      4  H1  UNL     1      -2.607   1.686   1.077  0.00  0.00    +0.119 HD
ATOM      5  H2  UNL     1      -1.844   2.259  -0.314  0.00  0.00    +0.119 HD
ENDBRANCH   2   3
BRANCH   2   6
ATOM      6  C   UNL     1      -3.745  -0.468  -0.223  0.00  0.00    +0.322 C 
ATOM      7  OXT UNL     1      -4.175  -0.648   0.947  0.00  0.00    -0.249 OA
BRANCH   6   8
ATOM      8  O   UNL     1      -4.458  -0.996  -1.295  0.00  0.00    -0.480 OA
ATOM      9  H   UNL     1      -4.174  -0.834  -2.253  0.00  0.00    +0.295 HD
ENDBRANCH   6   8
ENDBRANCH   2   6
ENDBRANCH   1   2
BRANCH   1  10
ATOM     10  C   UNL     1       0.076   0.169  -0.147  0.00  0.00    +0.021 C 
BRANCH  10  11
ATOM     11  C   UNL     1       1.219  -0.646   0.467  0.00  0.00    +0.106 C 
BRANCH  11  12
ATOM     12  N   UNL     1       2.518  -0.082   0.103  0.00  0.00    -0.300 N 
ATOM     13  C   UNL     1       3.741  -0.694   0.528  0.00  0.00    +0.297 C 
ATOM     14  N   UNL     1       4.995  -0.147   0.119  0.00  0.00    -0.313 N 
ATOM     15  O   UNL     1       3.719  -1.722   1.260  0.00  0.00    -0.253 OA
ATOM     16  H   UNL     1       2.568   0.790  -0.471  0.00  0.00    +0.150 HD
ATOM     17  H   UNL     1       5.033   0.741  -0.429  0.00  0.00    +0.146 HD
ATOM     18  H   UNL     1       5.888  -0.604   0.410  0.00  0.00    +0.146 HD
ENDBRANCH  11  12
ENDBRANCH  10  11
ENDBRANCH   1  10
TORSDOF 7
