REMARK  Name = 
REMARK  5 active torsions:
REMARK  status: ('A' for Active; 'I' for Inactive)
REMARK    1  A    between atoms: N_1  and  CA_2
REMARK    2  A    between atoms: CA_2  and  CB_3
REMARK    3  A    between atoms: CA_2  and  C_5
REMARK    4  A    between atoms: CB_3  and  SG_4
REMARK    5  A    between atoms: C_5  and  O_6
REMARK                            x       y       z     vdW  Elec       q    Type
REMARK                         _______ _______ _______ _____ _____    ______ ____
ROOT
ATOM      1  CA  CYS A   1       0.064   0.125   0.535  0.00  0.00    +0.170 C 
ENDROOT
BRANCH   1   2
ATOM      2  N   CYS A   1       0.497   1.499   0.795  0.00  0.00    -0.318 NA
ATOM      3  H1  CYS A   1      -0.274   2.005   1.289  0.00  0.00    +0.119 HD
ATOM      4  H2  CYS A   1       0.661   1.992  -0.113  0.00  0.00    +0.119 HD
ENDBRANCH   1   2
BRANCH   1   5
ATOM      5  C   CYS A   1       1.218  -0.665  -0.015  0.00  0.00    +0.323 C 
ATOM      6  OXT CYS A   1       1.626  -1.692   0.592  0.00  0.00    -0.249 OA
BRANCH   5   7
ATOM      7  O   CYS A   1       1.836  -0.268  -1.198  0.00  0.00    -0.480 OA
ATOM      8  H   CYS A   1       2.613  -0.794  -1.580  0.00  0.00    +0.295 HD
ENDBRANCH   5   7
ENDBRANCH   1   5
BRANCH   1   9
ATOM      9  CB  CYS A   1      -1.135   0.101  -0.431  0.00  0.00    +0.095 C 
BRANCH   9  10
ATOM     10  SG  CYS A   1      -1.811  -1.582  -0.615  0.00  0.00    -0.176 S 
ATOM     11  HG  CYS A   1      -2.265  -1.632   0.717  0.00  0.00    +0.102 HD
ENDBRANCH   9  10
ENDBRANCH   1   9
TORSDOF 5
