REMARK  Name = 
REMARK  11 active torsions:
REMARK  status: ('A' for Active; 'I' for Inactive)
REMARK    1  A    between atoms: N_1  and  CA_2
REMARK    2  A    between atoms: CA_2  and  CB_3
REMARK    3  A    between atoms: CA_2  and  C_12
REMARK    4  A    between atoms: CB_3  and  SG_4
REMARK    5  A    between atoms: SG_4  and  SG_5
REMARK    6  A    between atoms: SG_5  and  CB_6
REMARK    7  A    between atoms: CB_6  and  CA_7
REMARK    8  A    between atoms: CA_7  and  N_8
REMARK    9  A    between atoms: CA_7  and  C_9
REMARK   10  A    between atoms: C_9  and  O_10
REMARK   11  A    between atoms: C_12  and  O_13
REMARK                            x       y       z     vdW  Elec       q    Type
REMARK                         _______ _______ _______ _____ _____    ______ ____
ROOT
ATOM      1  SG  CYS A   1      -0.435   0.799  -0.346  0.00  0.00    -0.091 S 
ENDROOT
BRANCH   1   2
ATOM      2  CB  CYS A   1      -1.723  -0.458  -0.039  0.00  0.00    +0.111 C 
BRANCH   2   3
ATOM      3  CA  CYS A   1      -2.934   0.163   0.680  0.00  0.00    +0.171 C 
BRANCH   3   4
ATOM      4  N   CYS A   1      -3.888  -0.870   1.089  0.00  0.00    -0.318 NA
ATOM      5  H1  CYS A   1      -3.429  -1.486   1.799  0.00  0.00    +0.119 HD
ATOM      6  H2  CYS A   1      -4.126  -1.471   0.265  0.00  0.00    +0.119 HD
ENDBRANCH   3   4
BRANCH   3   7
ATOM      7  C   CYS A   1      -3.627   1.172  -0.192  0.00  0.00    +0.323 C 
ATOM      8  OXT CYS A   1      -4.206   0.808  -1.252  0.00  0.00    -0.249 OA
BRANCH   7   9
ATOM      9  O   CYS A   1      -3.620   2.517   0.166  0.00  0.00    -0.480 OA
ATOM     10  H   CYS A   1      -4.077   3.211  -0.412  0.00  0.00    +0.295 HD
ENDBRANCH   7   9
ENDBRANCH   3   7
ENDBRANCH   2   3
ENDBRANCH   1   2
BRANCH   1  11
ATOM     11  SG  CYS A   1       0.886  -0.598  -1.281  0.00  0.00    -0.091 S 
BRANCH  11  12
ATOM     12  CB  CYS A   1       1.810  -1.000   0.251  0.00  0.00    +0.111 C 
BRANCH  12  13
ATOM     13  CA  CYS A   1       3.139  -0.227   0.380  0.00  0.00    +0.171 C 
BRANCH  13  14
ATOM     14  N   CYS A   1       2.931   1.218   0.506  0.00  0.00    -0.318 NA
ATOM     15  H1  CYS A   1       2.439   1.587  -0.339  0.00  0.00    +0.119 HD
ATOM     16  H2  CYS A   1       2.315   1.399   1.332  0.00  0.00    +0.119 HD
ENDBRANCH  13  14
BRANCH  13  17
ATOM     17  C   CYS A   1       4.068  -0.532  -0.764  0.00  0.00    +0.323 C 
ATOM     18  OXT CYS A   1       4.856  -1.512  -0.686  0.00  0.00    -0.249 OA
BRANCH  17  19
ATOM     19  O   CYS A   1       4.030   0.233  -1.927  0.00  0.00    -0.480 OA
ATOM     20  H   CYS A   1       4.640   0.021  -2.708  0.00  0.00    +0.295 HD
ENDBRANCH  17  19
ENDBRANCH  13  17
ENDBRANCH  12  13
ENDBRANCH  11  12
ENDBRANCH   1  11
TORSDOF 11
