REMARK  Name = 
REMARK  7 active torsions:
REMARK  status: ('A' for Active; 'I' for Inactive)
REMARK    1  A    between atoms: N_1  and  CA_2
REMARK    2  A    between atoms: CA_2  and  CB_3
REMARK    3  A    between atoms: CA_2  and  C_8
REMARK    4  A    between atoms: CB_3  and  CG_4
REMARK    5  A    between atoms: CG_4  and  CD_5
REMARK    6  A    between atoms: CD_5  and  OE1_6
REMARK    7  A    between atoms: C_8  and  O_9
REMARK                            x       y       z     vdW  Elec       q    Type
REMARK                         _______ _______ _______ _____ _____    ______ ____
ROOT
ATOM      1  CA  GLU A   1       1.183  -0.208   0.605  0.00  0.00    +0.161 C 
ENDROOT
BRANCH   1   2
ATOM      2  N   GLU A   1       2.183   0.752   1.076  0.00  0.00    -0.318 NA
ATOM      3  H1  GLU A   1       1.844   1.169   1.974  0.00  0.00    +0.119 HD
ATOM      4  H2  GLU A   1       3.055   0.227   1.317  0.00  0.00    +0.119 HD
ENDBRANCH   1   2
BRANCH   1   5
ATOM      5  C   GLU A   1       1.704  -0.909  -0.619  0.00  0.00    +0.322 C 
ATOM      6  OXT GLU A   1       1.732  -2.168  -0.662  0.00  0.00    -0.249 OA
BRANCH   5   7
ATOM      7  O   GLU A   1       2.143  -0.168  -1.713  0.00  0.00    -0.480 OA
ATOM      8  H   GLU A   1       2.490  -0.628  -2.546  0.00  0.00    +0.295 HD
ENDBRANCH   5   7
ENDBRANCH   1   5
BRANCH   1   9
ATOM      9  CB  GLU A   1      -0.139   0.523   0.295  0.00  0.00    +0.041 C 
BRANCH   9  10
ATOM     10  CG  GLU A   1      -1.276  -0.451  -0.042  0.00  0.00    +0.122 C 
BRANCH  10  11
ATOM     11  CD  GLU A   1      -2.552   0.296  -0.273  0.00  0.00    +0.305 C 
ATOM     12  OE2 GLU A   1      -2.841   0.710  -1.428  0.00  0.00    -0.251 OA
BRANCH  11  13
ATOM     13  OE1 GLU A   1      -3.397   0.571   0.797  0.00  0.00    -0.481 OA
ATOM     14  HE1 GLU A   1      -4.256   1.090   0.660  0.00  0.00    +0.295 HD
ENDBRANCH  11  13
ENDBRANCH  10  11
ENDBRANCH   9  10
ENDBRANCH   1   9
TORSDOF 7
