REMARK  Name = 
REMARK  6 active torsions:
REMARK  status: ('A' for Active; 'I' for Inactive)
REMARK    1  A    between atoms: N_1  and  CA_2
REMARK    2  A    between atoms: CA_2  and  CB_3
REMARK    3  A    between atoms: CA_2  and  C_8
REMARK    4  A    between atoms: CB_3  and  CG_4
REMARK    5  A    between atoms: CG_4  and  CD_5
REMARK    6  A    between atoms: C_8  and  O_9
REMARK                            x       y       z     vdW  Elec       q    Type
REMARK                         _______ _______ _______ _____ _____    ______ ____
ROOT
ATOM      1  CA  GLN A   1      -0.755  -0.677   0.398  0.00  0.00    +0.161 C 
ENDROOT
BRANCH   1   2
ATOM      2  N   GLN A   1      -1.616  -1.824   0.696  0.00  0.00    -0.318 NA
ATOM      3  H1  GLN A   1      -1.884  -1.789   1.707  0.00  0.00    +0.119 HD
ATOM      4  H2  GLN A   1      -2.497  -1.756   0.136  0.00  0.00    +0.119 HD
ENDBRANCH   1   2
BRANCH   1   5
ATOM      5  C   GLN A   1      -1.478   0.615   0.686  0.00  0.00    +0.322 C 
ATOM      6  OXT GLN A   1      -2.510   0.928   0.032  0.00  0.00    -0.249 OA
BRANCH   5   7
ATOM      7  O   GLN A   1      -1.009   1.461   1.685  0.00  0.00    -0.480 OA
ATOM      8  H   GLN A   1      -1.481   2.333   1.893  0.00  0.00    +0.295 HD
ENDBRANCH   5   7
ENDBRANCH   1   5
BRANCH   1   9
ATOM      9  CB  GLN A   1      -0.279  -0.751  -1.068  0.00  0.00    +0.039 C 
BRANCH   9  10
ATOM     10  CG  GLN A   1       0.755   0.326  -1.435  0.00  0.00    +0.097 C 
BRANCH  10  11
ATOM     11  CD  GLN A   1       2.056   0.121  -0.715  0.00  0.00    +0.211 C 
ATOM     12  NE2 GLN A   1       2.385   0.911   0.428  0.00  0.00    -0.329 N 
ATOM     13  OE1 GLN A   1       2.854  -0.772  -1.106  0.00  0.00    -0.276 OA
ATOM     14 HE21 GLN A   1       1.732   1.648   0.774  0.00  0.00    +0.145 HD
ATOM     15 HE22 GLN A   1       3.285   0.755   0.934  0.00  0.00    +0.145 HD
ENDBRANCH  10  11
ENDBRANCH   9  10
ENDBRANCH   1   9
TORSDOF 6
