REMARK  Name = 
REMARK  5 active torsions:
REMARK  status: ('A' for Active; 'I' for Inactive)
REMARK    1  A    between atoms: N_1  and  CA_2
REMARK    2  A    between atoms: CA_2  and  CB_3
REMARK    3  A    between atoms: CA_2  and  C_9
REMARK    4  A    between atoms: CB_3  and  CG_4
REMARK    5  A    between atoms: C_9  and  O_10
REMARK                            x       y       z     vdW  Elec       q    Type
REMARK                         _______ _______ _______ _____ _____    ______ ____
ROOT
ATOM      1  CA  HIS A   1       0.945  -0.620  -0.063  0.00  0.00    +0.166 C 
ENDROOT
BRANCH   1   2
ATOM      2  N   HIS A   1       0.513  -1.406   1.097  0.00  0.00    -0.318 NA
ATOM      3  H1  HIS A   1       0.878  -2.381   0.996  0.00  0.00    +0.119 HD
ATOM      4  H2  HIS A   1       0.928  -1.002   1.969  0.00  0.00    +0.119 HD
ENDBRANCH   1   2
BRANCH   1   5
ATOM      5  C   HIS A   1       2.448  -0.592  -0.158  0.00  0.00    +0.322 C 
ATOM      6  OXT HIS A   1       3.138  -0.106   0.779  0.00  0.00    -0.249 OA
BRANCH   5   7
ATOM      7  O   HIS A   1       3.078  -1.103  -1.288  0.00  0.00    -0.480 OA
ATOM      8  H   HIS A   1       4.088  -1.091  -1.370  0.00  0.00    +0.295 HD
ENDBRANCH   5   7
ENDBRANCH   1   5
BRANCH   1   9
ATOM      9  CB  HIS A   1       0.384   0.810   0.012  0.00  0.00    +0.084 C 
BRANCH   9  10
ATOM     10  CG  HIS A   1      -1.115   0.807  -0.034  0.00  0.00    +0.037 A 
ATOM     11  CD2 HIS A   1      -1.968   0.828   1.046  0.00  0.00    +0.133 A 
ATOM     12  NE2 HIS A   1      -3.239   0.749   0.605  0.00  0.00    -0.244 NA
ATOM     13  CE1 HIS A   1      -3.123   0.675  -0.739  0.00  0.00    +0.196 A 
ATOM     14  ND1 HIS A   1      -1.843   0.702  -1.155  0.00  0.00    -0.348 N 
ATOM     15  HD1 HIS A   1      -1.496   0.642  -2.138  0.00  0.00    +0.166 HD
ENDBRANCH   9  10
ENDBRANCH   1   9
TORSDOF 5
