REMARK  Name = 
REMARK  7 active torsions:
REMARK  status: ('A' for Active; 'I' for Inactive)
REMARK    1  A    between atoms: CD1_1  and  CG1_2
REMARK    2  A    between atoms: CG1_2  and  CB_3
REMARK    3  A    between atoms: CB_3  and  CG2_4
REMARK    4  A    between atoms: CB_3  and  CA_5
REMARK    5  A    between atoms: CA_5  and  N_6
REMARK    6  A    between atoms: CA_5  and  C_7
REMARK    7  A    between atoms: C_7  and  O_8
REMARK                            x       y       z     vdW  Elec       q    Type
REMARK                         _______ _______ _______ _____ _____    ______ ____
ROOT
ATOM      1  CA  ILE A   1       0.779   0.018   0.582  0.00  0.00    +0.163 C 
ENDROOT
BRANCH   1   2
ATOM      2  N   ILE A   1       0.888   1.211   1.427  0.00  0.00    -0.318 NA
ATOM      3  H1  ILE A   1       1.451   0.973   2.276  0.00  0.00    +0.119 HD
ATOM      4  H2  ILE A   1       1.400   1.962   0.908  0.00  0.00    +0.119 HD
ENDBRANCH   1   2
BRANCH   1   5
ATOM      5  CB  ILE A   1      -0.103   0.305  -0.667  0.00  0.00    +0.013 C 
ATOM      6  CG2 ILE A   1      -0.316  -0.966  -1.511  0.00  0.00    +0.009 C 
BRANCH   5   8
ATOM      7  CD1 ILE A   1      -2.351   0.151   0.618  0.00  0.00    +0.004 C 
ATOM      8  CG1 ILE A   1      -1.458   0.973  -0.315  0.00  0.00    +0.002 C 
ENDBRANCH   5   8
ENDBRANCH   1   5
BRANCH   1   9
ATOM      9  C   ILE A   1       2.152  -0.466   0.188  0.00  0.00    +0.322 C 
ATOM     10  OXT ILE A   1       2.929   0.280  -0.468  0.00  0.00    -0.249 OA
BRANCH   9  11
ATOM     11  O   ILE A   1       2.562  -1.748   0.544  0.00  0.00    -0.480 OA
ATOM     12  H   ILE A   1       3.479  -2.091   0.284  0.00  0.00    +0.295 HD
ENDBRANCH   9  11
ENDBRANCH   1   9
TORSDOF 5
