REMARK  Name = 
REMARK  7 active torsions:
REMARK  status: ('A' for Active; 'I' for Inactive)
REMARK    1  A    between atoms: CD1_1  and  CG_2
REMARK    2  A    between atoms: CG_2  and  CD2_3
REMARK    3  A    between atoms: CG_2  and  CB_4
REMARK    4  A    between atoms: CB_4  and  CA_5
REMARK    5  A    between atoms: CA_5  and  N_6
REMARK    6  A    between atoms: CA_5  and  C_7
REMARK    7  A    between atoms: C_7  and  O_8
REMARK                            x       y       z     vdW  Elec       q    Type
REMARK                         _______ _______ _______ _____ _____    ______ ____
ROOT
ATOM      1  CA  LEU A   1       0.945  -0.354   0.468  0.00  0.00    +0.161 C 
ENDROOT
BRANCH   1   2
ATOM      2  N   LEU A   1       1.181   0.908   1.174  0.00  0.00    -0.318 NA
ATOM      3  H1  LEU A   1       1.685   0.704   2.068  0.00  0.00    +0.119 HD
ATOM      4  H2  LEU A   1       1.800   1.524   0.597  0.00  0.00    +0.119 HD
ENDBRANCH   1   2
BRANCH   1   5
ATOM      5  C   LEU A   1       2.259  -1.020   0.148  0.00  0.00    +0.322 C 
ATOM      6  OXT LEU A   1       2.548  -2.128   0.673  0.00  0.00    -0.249 OA
BRANCH   5   7
ATOM      7  O   LEU A   1       3.159  -0.409  -0.720  0.00  0.00    -0.480 OA
ATOM      8  H   LEU A   1       4.046  -0.845  -0.941  0.00  0.00    +0.295 HD
ENDBRANCH   5   7
ENDBRANCH   1   5
BRANCH   1   9
ATOM      9  CB  LEU A   1       0.141  -0.116  -0.833  0.00  0.00    +0.033 C 
BRANCH   9  11
ATOM     10  CD1 LEU A   1      -1.594   1.528   0.122  0.00  0.00    +0.007 C 
ATOM     11  CG  LEU A   1      -1.360   0.222  -0.648  0.00  0.00    -0.015 C 
ATOM     12  CD2 LEU A   1      -2.154  -0.933  -0.021  0.00  0.00    +0.007 C 
ENDBRANCH   9  11
ENDBRANCH   1   9
TORSDOF 5
