REMARK  Name = 
REMARK  8 active torsions:
REMARK  status: ('A' for Active; 'I' for Inactive)
REMARK    1  A    between atoms: NZ_1  and  CE_2
REMARK    2  A    between atoms: CE_2  and  CD_3
REMARK    3  A    between atoms: CD_3  and  CG_4
REMARK    4  A    between atoms: CG_4  and  CB_5
REMARK    5  A    between atoms: CB_5  and  CA_6
REMARK    6  A    between atoms: CA_6  and  N_7
REMARK    7  A    between atoms: CA_6  and  C_8
REMARK    8  A    between atoms: C_8  and  O_9
REMARK                            x       y       z     vdW  Elec       q    Type
REMARK                         _______ _______ _______ _____ _____    ______ ____
ROOT
ATOM      1  CA  LYS A   1      -1.679   0.190   0.520  0.00  0.00    +0.161 C 
ENDROOT
BRANCH   1   2
ATOM      2  N   LYS A   1      -2.109  -1.211   0.567  0.00  0.00    -0.318 NA
ATOM      3  H1  LYS A   1      -2.423  -1.519  -0.383  0.00  0.00    +0.119 HD
ATOM      4  H2  LYS A   1      -1.298  -1.808   0.847  0.00  0.00    +0.119 HD
ENDBRANCH   1   2
BRANCH   1   5
ATOM      5  C   LYS A   1      -2.886   1.081   0.551  0.00  0.00    +0.322 C 
ATOM      6  OXT LYS A   1      -3.839   0.892  -0.253  0.00  0.00    -0.249 OA
BRANCH   5   7
ATOM      7  O   LYS A   1      -2.941   2.141   1.451  0.00  0.00    -0.480 OA
ATOM      8  H   LYS A   1      -3.743   2.760   1.477  0.00  0.00    +0.295 HD
ENDBRANCH   5   7
ENDBRANCH   1   5
BRANCH   1   9
ATOM      9  CB  LYS A   1      -0.827   0.504  -0.734  0.00  0.00    +0.030 C 
BRANCH   9  10
ATOM     10  CG  LYS A   1       0.449  -0.346  -0.877  0.00  0.00    +0.003 C 
BRANCH  10  11
ATOM     11  CD  LYS A   1       1.475  -0.076   0.237  0.00  0.00    +0.015 C 
BRANCH  11  12
ATOM     12  CE  LYS A   1       2.771  -0.887   0.055  0.00  0.00    +0.077 C 
BRANCH  12  13
ATOM     13  NZ  LYS A   1       3.583  -0.405  -1.062  0.00  0.00    -0.330 NA
ATOM     14  HZ1 LYS A   1       3.680   0.634  -1.002  0.00  0.00    +0.118 HD
ATOM     15  HZ2 LYS A   1       3.109  -0.639  -1.963  0.00  0.00    +0.118 HD
ENDBRANCH  12  13
ENDBRANCH  11  12
ENDBRANCH  10  11
ENDBRANCH   9  10
ENDBRANCH   1   9
TORSDOF 8
