REMARK  Name = 
REMARK  7 active torsions:
REMARK  status: ('A' for Active; 'I' for Inactive)
REMARK    1  A    between atoms: CE_1  and  SD_2
REMARK    2  A    between atoms: SD_2  and  CG_3
REMARK    3  A    between atoms: CG_3  and  CB_4
REMARK    4  A    between atoms: CB_4  and  CA_5
REMARK    5  A    between atoms: CA_5  and  N_6
REMARK    6  A    between atoms: CA_5  and  C_7
REMARK    7  A    between atoms: C_7  and  O_8
REMARK                            x       y       z     vdW  Elec       q    Type
REMARK                         _______ _______ _______ _____ _____    ______ ____
ROOT
ATOM      1  CA  MET A   1      -1.451  -0.544   0.064  0.00  0.00    +0.161 C 
ENDROOT
BRANCH   1   2
ATOM      2  N   MET A   1      -1.575  -0.477  -1.395  0.00  0.00    -0.318 NA
ATOM      3  H1  MET A   1      -1.035  -1.265  -1.821  0.00  0.00    +0.119 HD
ATOM      4  H2  MET A   1      -1.166   0.419  -1.747  0.00  0.00    +0.119 HD
ENDBRANCH   1   2
BRANCH   1   5
ATOM      5  C   MET A   1      -2.509   0.321   0.686  0.00  0.00    +0.322 C 
ATOM      6  OXT MET A   1      -3.287  -0.158   1.555  0.00  0.00    -0.249 OA
BRANCH   5   7
ATOM      7  O   MET A   1      -2.619   1.660   0.321  0.00  0.00    -0.480 OA
ATOM      8  H   MET A   1      -3.323   2.256   0.740  0.00  0.00    +0.295 HD
ENDBRANCH   5   7
ENDBRANCH   1   5
BRANCH   1   9
ATOM      9  CB  MET A   1      -0.055  -0.097   0.552  0.00  0.00    +0.040 C 
BRANCH   9  10
ATOM     10  CG  MET A   1       1.058  -1.043   0.085  0.00  0.00    +0.071 C 
BRANCH  10  12
ATOM     11  CE  MET A   1       3.135   0.649  -0.359  0.00  0.00    +0.084 C 
ATOM     12  SD  MET A   1       2.649  -0.603   0.873  0.00  0.00    -0.164 S 
ENDBRANCH  10  12
ENDBRANCH   9  10
ENDBRANCH   1   9
TORSDOF 6
