REMARK  Name = 
REMARK  7 active torsions:
REMARK  status: ('A' for Active; 'I' for Inactive)
REMARK    1  A    between atoms: N_1  and  C_2
REMARK    2  A    between atoms: C_2  and  C_3
REMARK    3  A    between atoms: C_3  and  C_4
REMARK    4  A    between atoms: C_4  and  CA_5
REMARK    5  A    between atoms: CA_5  and  N_6
REMARK    6  A    between atoms: CA_5  and  C_7
REMARK    7  A    between atoms: C_7  and  O_8
REMARK                            x       y       z     vdW  Elec       q    Type
REMARK                         _______ _______ _______ _____ _____    ______ ____
ROOT
ATOM      1  CA  UNL     1       1.243   0.285  -0.660  0.00  0.00    +0.161 C 
ENDROOT
BRANCH   1   2
ATOM      2  N   UNL     1       1.850  -0.959  -1.139  0.00  0.00    -0.318 NA
ATOM      3  H1  UNL     1       2.200  -1.516  -0.325  0.00  0.00    +0.119 HD
ATOM      4  H2  UNL     1       2.676  -0.721  -1.736  0.00  0.00    +0.119 HD
ENDBRANCH   1   2
BRANCH   1   5
ATOM      5  C   UNL     1       2.233   1.084   0.146  0.00  0.00    +0.322 C 
ATOM      6  OXT UNL     1       2.726   0.608   1.204  0.00  0.00    -0.249 OA
BRANCH   5   7
ATOM      7  O   UNL     1       2.606   2.355  -0.281  0.00  0.00    -0.480 OA
ATOM      8  H   UNL     1       3.270   2.907   0.249  0.00  0.00    +0.295 HD
ENDBRANCH   5   7
ENDBRANCH   1   5
BRANCH   1   9
ATOM      9  C   UNL     1      -0.018  -0.010   0.173  0.00  0.00    +0.031 C 
BRANCH   9  10
ATOM     10  C   UNL     1      -1.126  -0.655  -0.676  0.00  0.00    +0.017 C 
BRANCH  10  11
ATOM     11  C   UNL     1      -2.351  -1.063   0.161  0.00  0.00    +0.078 C 
BRANCH  11  12
ATOM     12  N   UNL     1      -3.088   0.091   0.677  0.00  0.00    -0.330 NA
ATOM     13  H   UNL     1      -2.518   0.563   1.414  0.00  0.00    +0.118 HD
ATOM     14  H   UNL     1      -3.253   0.774  -0.098  0.00  0.00    +0.118 HD
ENDBRANCH  11  12
ENDBRANCH  10  11
ENDBRANCH   9  10
ENDBRANCH   1   9
TORSDOF 7
