REMARK  Name = 
REMARK  5 active torsions:
REMARK  status: ('A' for Active; 'I' for Inactive)
REMARK    1  A    between atoms: N_1  and  CA_2
REMARK    2  A    between atoms: CA_2  and  CB_3
REMARK    3  A    between atoms: CA_2  and  C_10
REMARK    4  A    between atoms: CB_3  and  CG_4
REMARK    5  A    between atoms: C_10  and  O_11
REMARK                            x       y       z     vdW  Elec       q    Type
REMARK                         _______ _______ _______ _____ _____    ______ ____
ROOT
ATOM      1  CA  PHE A   1      -1.537   0.542  -0.096  0.00  0.00    +0.165 C 
ENDROOT
BRANCH   1   2
ATOM      2  N   PHE A   1      -1.556  -0.121   1.211  0.00  0.00    -0.318 NA
ATOM      3  H1  PHE A   1      -2.051  -1.040   1.130  0.00  0.00    +0.119 HD
ATOM      4  H2  PHE A   1      -2.101   0.471   1.880  0.00  0.00    +0.119 HD
ENDBRANCH   1   2
BRANCH   1   5
ATOM      5  C   PHE A   1      -2.937   0.741  -0.615  0.00  0.00    +0.322 C 
ATOM      6  OXT PHE A   1      -3.690  -0.250  -0.814  0.00  0.00    -0.249 OA
BRANCH   5   7
ATOM      7  O   PHE A   1      -3.399   2.027  -0.879  0.00  0.00    -0.480 OA
ATOM      8  H   PHE A   1      -4.337   2.180  -1.230  0.00  0.00    +0.295 HD
ENDBRANCH   5   7
ENDBRANCH   1   5
BRANCH   1   9
ATOM      9  CB  PHE A   1      -0.699  -0.266  -1.103  0.00  0.00    +0.065 C 
BRANCH   9  10
ATOM     10  CG  PHE A   1       0.742  -0.357  -0.670  0.00  0.00    -0.045 A 
ATOM     11  CD1 PHE A   1       1.196  -1.468   0.061  0.00  0.00    +0.004 A 
ATOM     12  CE1 PHE A   1       2.527  -1.535   0.485  0.00  0.00    +0.000 A 
ATOM     13  CZ  PHE A   1       3.410  -0.492   0.190  0.00  0.00    +0.000 A 
ATOM     14  CE2 PHE A   1       2.963   0.620  -0.528  0.00  0.00    +0.000 A 
ATOM     15  CD2 PHE A   1       1.633   0.692  -0.954  0.00  0.00    +0.004 A 
ENDBRANCH   9  10
ENDBRANCH   1   9
TORSDOF 5
