REMARK  Name = 
REMARK  2 active torsions:
REMARK  status: ('A' for Active; 'I' for Inactive)
REMARK    1  A    between atoms: O_1  and  C_2
REMARK    2  A    between atoms: C_2  and  CA_4
REMARK                            x       y       z     vdW  Elec       q    Type
REMARK                         _______ _______ _______ _____ _____    ______ ____
ROOT
ATOM      1  CA  PRO A   1       0.653   0.160   0.466  0.00  0.00    +0.163 C 
ATOM      2  CB  PRO A   1      -0.269  -1.048   0.539  0.00  0.00    +0.031 C 
ATOM      3  CG  PRO A   1      -1.634  -0.440   0.741  0.00  0.00    +0.017 C 
ATOM      4  CD  PRO A   1      -1.545   0.913   0.055  0.00  0.00    +0.082 C 
ATOM      5  N   PRO A   1      -0.132   1.289  -0.043  0.00  0.00    -0.304 NA
ATOM      6  H   PRO A   1       0.041   2.123   0.567  0.00  0.00    +0.123 HD
ENDROOT
BRANCH   1   7
ATOM      7  C   PRO A   1       1.834  -0.100  -0.422  0.00  0.00    +0.322 C 
ATOM      8  OXT PRO A   1       1.706  -0.073  -1.676  0.00  0.00    -0.249 OA
BRANCH   7   9
ATOM      9  O   PRO A   1       3.067  -0.411   0.142  0.00  0.00    -0.480 OA
ATOM     10  H   PRO A   1       3.872  -0.604  -0.442  0.00  0.00    +0.295 HD
ENDBRANCH   7   9
ENDBRANCH   1   7
TORSDOF 2
