REMARK  Name = 
REMARK  5 active torsions:
REMARK  status: ('A' for Active; 'I' for Inactive)
REMARK    1  A    between atoms: N_1  and  CA_2
REMARK    2  A    between atoms: CA_2  and  CB_3
REMARK    3  A    between atoms: CA_2  and  C_5
REMARK    4  A    between atoms: CB_3  and  OG_4
REMARK    5  A    between atoms: C_5  and  O_6
REMARK                            x       y       z     vdW  Elec       q    Type
REMARK                         _______ _______ _______ _____ _____    ______ ____
ROOT
ATOM      1  CA  SER A   1      -0.186   0.269   0.264  0.00  0.00    +0.186 C 
ENDROOT
BRANCH   1   2
ATOM      2  N   SER A   1      -0.280   1.725   0.379  0.00  0.00    -0.317 NA
ATOM      3  H1  SER A   1       0.118   2.008   1.304  0.00  0.00    +0.119 HD
ATOM      4  H2  SER A   1      -1.292   1.990   0.410  0.00  0.00    +0.119 HD
ENDBRANCH   1   2
BRANCH   1   5
ATOM      5  C   SER A   1       1.254  -0.157   0.326  0.00  0.00    +0.324 C 
ATOM      6  OXT SER A   1       2.114   0.400  -0.408  0.00  0.00    -0.249 OA
BRANCH   5   7
ATOM      7  O   SER A   1       1.634  -1.189   1.178  0.00  0.00    -0.479 OA
ATOM      8  H   SER A   1       2.598  -1.496   1.225  0.00  0.00    +0.295 HD
ENDBRANCH   5   7
ENDBRANCH   1   5
BRANCH   1   9
ATOM      9  CB  SER A   1      -0.827  -0.198  -1.053  0.00  0.00    +0.185 C 
BRANCH   9  10
ATOM     10  OG  SER A   1      -0.768  -1.595  -1.169  0.00  0.00    -0.393 OA
ATOM     11  H   SER A   1      -1.454  -1.959  -0.550  0.00  0.00    +0.209 HD
ENDBRANCH   9  10
ENDBRANCH   1   9
TORSDOF 5
