REMARK  Name = 
REMARK  6 active torsions:
REMARK  status: ('A' for Active; 'I' for Inactive)
REMARK    1  A    between atoms: CG2_1  and  CB_2
REMARK    2  A    between atoms: CB_2  and  OG1_3
REMARK    3  A    between atoms: CB_2  and  CA_4
REMARK    4  A    between atoms: CA_4  and  N_5
REMARK    5  A    between atoms: CA_4  and  C_6
REMARK    6  A    between atoms: C_6  and  O_7
REMARK                            x       y       z     vdW  Elec       q    Type
REMARK                         _______ _______ _______ _____ _____    ______ ____
ROOT
ATOM      1  CA  THR A   1       0.315  -0.834  -0.146  0.00  0.00    +0.189 C 
ENDROOT
BRANCH   1   2
ATOM      2  N   THR A   1       0.235  -1.411   1.200  0.00  0.00    -0.316 NA
ATOM      3  H1  THR A   1       0.262  -0.656   1.921  0.00  0.00    +0.119 HD
ATOM      4  H2  THR A   1       1.080  -2.009   1.354  0.00  0.00    +0.119 HD
ENDBRANCH   1   2
BRANCH   1   6
ATOM      5  CG2 THR A   1      -1.348   1.077   0.341  0.00  0.00    +0.040 C 
ATOM      6  CB  THR A   1      -1.015  -0.137  -0.533  0.00  0.00    +0.139 C 
BRANCH   6   7
ATOM      7  OG1 THR A   1      -0.970   0.274  -1.876  0.00  0.00    -0.390 OA
ATOM      8  HG1 THR A   1      -1.075  -0.543  -2.431  0.00  0.00    +0.210 HD
ENDBRANCH   6   7
ENDBRANCH   1   6
BRANCH   1   9
ATOM      9  C   THR A   1       1.508   0.082  -0.289  0.00  0.00    +0.324 C 
ATOM     10  OXT THR A   1       2.118   0.145  -1.390  0.00  0.00    -0.249 OA
BRANCH   9  11
ATOM     11  O   THR A   1       1.914   0.888   0.771  0.00  0.00    -0.479 OA
ATOM     12  H   THR A   1       2.703   1.516   0.673  0.00  0.00    +0.295 HD
ENDBRANCH   9  11
ENDBRANCH   1   9
TORSDOF 5
