REMARK  Name = 
REMARK  5 active torsions:
REMARK  status: ('A' for Active; 'I' for Inactive)
REMARK    1  A    between atoms: N_1  and  CA_2
REMARK    2  A    between atoms: CA_2  and  CB_3
REMARK    3  A    between atoms: CA_2  and  C_13
REMARK    4  A    between atoms: CB_3  and  CG_4
REMARK    5  A    between atoms: C_13  and  O_14
REMARK                            x       y       z     vdW  Elec       q    Type
REMARK                         _______ _______ _______ _____ _____    ______ ____
ROOT
ATOM      1  CG  TRP A   1       0.253  -0.672   0.473  0.00  0.00    -0.020 A 
ATOM      2  CD1 TRP A   1       0.362  -1.936  -0.099  0.00  0.00    +0.087 A 
ATOM      3  NE1 TRP A   1       1.293  -1.930  -1.080  0.00  0.00    -0.360 N 
ATOM      4  CE2 TRP A   1       1.764  -0.672  -1.139  0.00  0.00    +0.047 A 
ATOM      5  CZ2 TRP A   1       2.729  -0.171  -2.011  0.00  0.00    +0.026 A 
ATOM      6  CH2 TRP A   1       3.061   1.193  -1.911  0.00  0.00    +0.002 A 
ATOM      7  CZ3 TRP A   1       2.425   2.016  -0.954  0.00  0.00    +0.001 A 
ATOM      8  CE3 TRP A   1       1.453   1.483  -0.089  0.00  0.00    +0.010 A 
ATOM      9  CD2 TRP A   1       1.149   0.127  -0.209  0.00  0.00    +0.003 A 
ATOM     10  HE1 TRP A   1       1.576  -2.738  -1.679  0.00  0.00    +0.165 HD
ENDROOT
BRANCH   1  11
ATOM     11  CB  TRP A   1      -0.716  -0.254   1.543  0.00  0.00    +0.067 C 
BRANCH  11  12
ATOM     12  CA  TRP A   1      -1.960   0.435   0.944  0.00  0.00    +0.165 C 
BRANCH  12  13
ATOM     13  N   TRP A   1      -2.821   0.969   2.000  0.00  0.00    -0.318 NA
ATOM     14  H1  TRP A   1      -2.299   1.720   2.509  0.00  0.00    +0.119 HD
ATOM     15  H2  TRP A   1      -3.032   0.214   2.694  0.00  0.00    +0.119 HD
ENDBRANCH  12  13
BRANCH  12  16
ATOM     16  C   TRP A   1      -2.750  -0.518   0.091  0.00  0.00    +0.322 C 
ATOM     17  OXT TRP A   1      -2.858  -0.316  -1.148  0.00  0.00    -0.249 OA
BRANCH  16  18
ATOM     18  O   TRP A   1      -3.352  -1.634   0.665  0.00  0.00    -0.480 OA
ATOM     19  H   TRP A   1      -3.880  -2.288   0.100  0.00  0.00    +0.295 HD
ENDBRANCH  16  18
ENDBRANCH  12  16
ENDBRANCH  11  12
ENDBRANCH   1  11
TORSDOF 5
