REMARK  Name = 
REMARK  6 active torsions:
REMARK  status: ('A' for Active; 'I' for Inactive)
REMARK    1  A    between atoms: N_1  and  CA_2
REMARK    2  A    between atoms: CA_2  and  CB_3
REMARK    3  A    between atoms: CA_2  and  C_11
REMARK    4  A    between atoms: CB_3  and  CG_4
REMARK    5  A    between atoms: CZ_7  and  OH_8
REMARK    6  A    between atoms: C_11  and  O_12
REMARK                            x       y       z     vdW  Elec       q    Type
REMARK                         _______ _______ _______ _____ _____    ______ ____
ROOT
ATOM      1  CB  TYR A   1      -1.070  -0.735  -0.409  0.00  0.00    +0.065 C 
ENDROOT
BRANCH   1   2
ATOM      2  CG  TYR A   1       0.422  -0.526  -0.465  0.00  0.00    -0.045 A 
ATOM      3  CD1 TYR A   1       1.265  -1.167   0.458  0.00  0.00    +0.007 A 
ATOM      4  CE1 TYR A   1       2.645  -0.949   0.421  0.00  0.00    +0.045 A 
ATOM      5  CZ  TYR A   1       3.196  -0.083  -0.532  0.00  0.00    +0.117 A 
ATOM      6  CE2 TYR A   1       2.360   0.565  -1.447  0.00  0.00    +0.045 A 
ATOM      7  CD2 TYR A   1       0.979   0.349  -1.412  0.00  0.00    +0.007 A 
BRANCH   5   8
ATOM      8  OH  TYR A   1       4.570   0.142  -0.578  0.00  0.00    -0.507 OA
ATOM      9  HH  TYR A   1       5.203  -0.311   0.070  0.00  0.00    +0.292 HD
ENDBRANCH   5   8
ENDBRANCH   1   2
BRANCH   1  10
ATOM     10  CA  TYR A   1      -1.761   0.374   0.404  0.00  0.00    +0.165 C 
BRANCH  10  11
ATOM     11  N   TYR A   1      -1.305   0.354   1.797  0.00  0.00    -0.318 NA
ATOM     12  H1  TYR A   1      -1.764   1.141   2.311  0.00  0.00    +0.119 HD
ATOM     13  H2  TYR A   1      -1.608  -0.538   2.253  0.00  0.00    +0.119 HD
ENDBRANCH  10  11
BRANCH  10  14
ATOM     14  C   TYR A   1      -3.258   0.227   0.330  0.00  0.00    +0.322 C 
ATOM     15  OXT TYR A   1      -3.822  -0.800   0.795  0.00  0.00    -0.249 OA
BRANCH  14  16
ATOM     16  O   TYR A   1      -4.022   1.230  -0.259  0.00  0.00    -0.480 OA
ATOM     17  H   TYR A   1      -5.030   1.147  -0.320  0.00  0.00    +0.295 HD
ENDBRANCH  14  16
ENDBRANCH  10  14
ENDBRANCH   1  10
TORSDOF 6
