REMARK  Name = 
REMARK  6 active torsions:
REMARK  status: ('A' for Active; 'I' for Inactive)
REMARK    1  A    between atoms: CG1_1  and  CB_2
REMARK    2  A    between atoms: CB_2  and  CG2_3
REMARK    3  A    between atoms: CB_2  and  CA_4
REMARK    4  A    between atoms: CA_4  and  N_5
REMARK    5  A    between atoms: CA_4  and  C_6
REMARK    6  A    between atoms: C_6  and  O_7
REMARK                            x       y       z     vdW  Elec       q    Type
REMARK                         _______ _______ _______ _____ _____    ______ ____
ROOT
ATOM      1  CA  VAL A   1       0.347  -0.836   0.086  0.00  0.00    +0.163 C 
ENDROOT
BRANCH   1   3
ATOM      2  CG1 VAL A   1      -2.088  -0.058   0.085  0.00  0.00    +0.009 C 
ATOM      3  CB  VAL A   1      -0.676   0.199  -0.461  0.00  0.00    +0.010 C 
ATOM      4  CG2 VAL A   1      -0.257   1.652  -0.184  0.00  0.00    +0.009 C 
ENDBRANCH   1   3
BRANCH   1   5
ATOM      5  N   VAL A   1       0.624  -0.622   1.511  0.00  0.00    -0.318 NA
ATOM      6  H1  VAL A   1       1.337  -1.323   1.819  0.00  0.00    +0.119 HD
ATOM      7  H2  VAL A   1      -0.239  -0.849   2.056  0.00  0.00    +0.119 HD
ENDBRANCH   1   5
BRANCH   1   8
ATOM      8  C   VAL A   1       1.629  -0.778  -0.705  0.00  0.00    +0.322 C 
ATOM      9  OXT VAL A   1       1.738  -1.442  -1.771  0.00  0.00    -0.249 OA
BRANCH   8  10
ATOM     10  O   VAL A   1       2.678   0.037  -0.288  0.00  0.00    -0.480 OA
ATOM     11  H   VAL A   1       3.536   0.094  -0.823  0.00  0.00    +0.295 HD
ENDBRANCH   8  10
ENDBRANCH   1   8
TORSDOF 4
