REMARK  Name = 
REMARK  11 active torsions:
REMARK  status: ('A' for Active; 'I' for Inactive)
REMARK    1  A    between atoms: C_1  and  C_2
REMARK    2  A    between atoms: C_2  and  C_3
REMARK    3  A    between atoms: C_2  and  N_11
REMARK    4  A    between atoms: C_3  and  C_4
REMARK    5  A    between atoms: C_4  and  C_5
REMARK    6  A    between atoms: N_11  and  C_12
REMARK    7  A    between atoms: C_12  and  C_13
REMARK    8  A    between atoms: C_13  and  O_14
REMARK    9  A    between atoms: C_13  and  C_15
REMARK   10  A    between atoms: C_17  and  C_18
REMARK   11  A    between atoms: C_21  and  O_22
REMARK                            x       y       z     vdW  Elec       q    Type
REMARK                         _______ _______ _______ _____ _____    ______ ____
ROOT
ATOM      1  C   UNL     1       1.708   1.454  -1.679  0.00  0.00    +0.158 C 
ENDROOT
BRANCH   1   2
ATOM      2  C   UNL     1       2.684   0.803  -0.722  0.00  0.00    -0.017 A 
ATOM      3  C   UNL     1       2.902  -0.584  -0.789  0.00  0.00    +0.023 A 
ATOM      4  C   UNL     1       3.769  -1.226   0.115  0.00  0.00    +0.078 A 
ATOM      5  C   UNL     1       4.410  -0.460   1.111  0.00  0.00    +0.129 A 
ATOM      6  C   UNL     1       4.180   0.919   1.189  0.00  0.00    +0.046 A 
ATOM      7  C   UNL     1       3.324   1.547   0.283  0.00  0.00    +0.010 A 
BRANCH   4   8
ATOM      8  C   UNL     1       3.977  -2.693   0.026  0.00  0.00    +0.245 C 
ATOM      9  N   UNL     1       3.904  -3.375  -1.229  0.00  0.00    -0.325 N 
ATOM     10  O   UNL     1       4.221  -3.359   1.068  0.00  0.00    -0.270 OA
ATOM     11  H   UNL     1       4.004  -4.413  -1.265  0.00  0.00    +0.145 HD
ATOM     12  H   UNL     1       3.828  -2.853  -2.130  0.00  0.00    +0.145 HD
ENDBRANCH   4   8
BRANCH   5  13
ATOM     13  O   UNL     1       5.283  -1.065   2.017  0.00  0.00    -0.506 OA
ATOM     14  H   UNL     1       5.754  -0.531   2.738  0.00  0.00    +0.292 HD
ENDBRANCH   5  13
ENDBRANCH   1   2
BRANCH   1  15
ATOM     15  O   UNL     1       2.063   2.793  -1.913  0.00  0.00    -0.386 OA
ATOM     16  H   UNL     1       1.555   3.091  -2.713  0.00  0.00    +0.210 HD
ENDBRANCH   1  15
BRANCH   1  17
ATOM     17  C   UNL     1       0.265   1.363  -1.151  0.00  0.00    +0.117 C 
BRANCH  17  18
ATOM     18  N   UNL     1       0.085   2.215   0.035  0.00  0.00    -0.311 NA
ATOM     19  H   UNL     1       0.590   1.772   0.838  0.00  0.00    +0.122 HD
BRANCH  18  21
ATOM     20  C   UNL     1      -2.063   3.373  -0.504  0.00  0.00    +0.024 C 
ATOM     21  C   UNL     1      -1.321   2.420   0.446  0.00  0.00    +0.051 C 
BRANCH  21  22
ATOM     22  C   UNL     1      -2.078   1.099   0.772  0.00  0.00    +0.023 C 
BRANCH  22  23
ATOM     23  C   UNL     1      -2.894   0.495  -0.386  0.00  0.00    +0.036 C 
BRANCH  23  24
ATOM     24  C   UNL     1      -3.417  -0.864  -0.006  0.00  0.00    -0.047 A 
ATOM     25  C   UNL     1      -4.649  -0.991   0.656  0.00  0.00    +0.003 A 
ATOM     26  C   UNL     1      -5.114  -2.252   1.042  0.00  0.00    +0.000 A 
ATOM     27  C   UNL     1      -4.350  -3.392   0.778  0.00  0.00    +0.000 A 
ATOM     28  C   UNL     1      -3.116  -3.272   0.132  0.00  0.00    +0.000 A 
ATOM     29  C   UNL     1      -2.647  -2.013  -0.255  0.00  0.00    +0.003 A 
ENDBRANCH  23  24
ENDBRANCH  22  23
ENDBRANCH  21  22
ENDBRANCH  18  21
ENDBRANCH  17  18
ENDBRANCH   1  17
TORSDOF 10
