REMARK  Name = 
REMARK  8 active torsions:
REMARK  status: ('A' for Active; 'I' for Inactive)
REMARK    1  A    between atoms: C_1  and  O_2
REMARK    2  A    between atoms: O_2  and  C_3
REMARK    3  A    between atoms: C_3  and  C_4
REMARK    4  A    between atoms: C_4  and  N_5
REMARK    5  A    between atoms: C_4  and  C_9
REMARK    6  A    between atoms: C_6  and  C_7
REMARK    7  A    between atoms: N_11  and  C_12
REMARK    8  A    between atoms: C_12  and  C_13
REMARK                            x       y       z     vdW  Elec       q    Type
REMARK                         _______ _______ _______ _____ _____    ______ ____
ROOT
ATOM      1  C   UNL     1      -0.300   0.725   0.661  0.00  0.00    +0.236 C 
ATOM      2  O   UNL     1       0.221   1.543  -0.145  0.00  0.00    -0.274 OA
ATOM      3  N   UNL     1       0.401   0.346   1.855  0.00  0.00    -0.310 N 
ATOM      4  H   UNL     1      -0.056  -0.304   2.533  0.00  0.00    +0.149 HD
ENDROOT
BRANCH   1   5
ATOM      5  C   UNL     1      -1.642   0.114   0.344  0.00  0.00    +0.185 C 
BRANCH   5   6
ATOM      6  N   UNL     1      -1.503  -0.830  -0.769  0.00  0.00    -0.302 N 
ATOM      7  C   UNL     1      -2.383  -1.949  -0.943  0.00  0.00    +0.211 C 
ATOM      8  C   UNL     1      -2.217  -2.850  -2.123  0.00  0.00    +0.109 C 
ATOM      9  O   UNL     1      -3.307  -2.172  -0.114  0.00  0.00    -0.276 OA
ATOM     10  H   UNL     1      -0.796  -0.637  -1.516  0.00  0.00    +0.150 HD
ENDBRANCH   5   6
BRANCH   5  11
ATOM     11  C   UNL     1      -2.677   1.191  -0.009  0.00  0.00    +0.191 C 
BRANCH  11  13
ATOM     12  C   UNL     1      -3.768   3.071   0.750  0.00  0.00    +0.194 C 
ATOM     13  O   UNL     1      -2.836   2.069   1.087  0.00  0.00    -0.381 OA
ENDBRANCH  11  13
ENDBRANCH   5  11
ENDBRANCH   1   5
BRANCH   3  14
ATOM     14  C   UNL     1       1.750   0.822   2.155  0.00  0.00    +0.139 C 
BRANCH  14  15
ATOM     15  C   UNL     1       2.749   0.154   1.250  0.00  0.00    -0.030 A 
ATOM     16  C   UNL     1       3.028  -1.215   1.401  0.00  0.00    +0.005 A 
ATOM     17  C   UNL     1       3.937  -1.847   0.547  0.00  0.00    +0.000 A 
ATOM     18  C   UNL     1       4.571  -1.119  -0.464  0.00  0.00    +0.000 A 
ATOM     19  C   UNL     1       4.295   0.242  -0.624  0.00  0.00    +0.000 A 
ATOM     20  C   UNL     1       3.386   0.878   0.228  0.00  0.00    +0.005 A 
ENDBRANCH  14  15
ENDBRANCH   3  14
TORSDOF 6
