REMARK  Name = 
REMARK  13 active torsions:
REMARK  status: ('A' for Active; 'I' for Inactive)
REMARK    1  A    between atoms: O_1  and  C_2
REMARK    2  A    between atoms: C_2  and  C_3
REMARK    3  A    between atoms: C_5  and  O_6
REMARK    4  A    between atoms: C_5  and  C_7
REMARK    5  A    between atoms: C_7  and  O_8
REMARK    6  A    between atoms: C_9  and  O_10
REMARK    7  A    between atoms: C_11  and  O_12
REMARK    8  A    between atoms: O_12  and  C_13
REMARK    9  A    between atoms: C_15  and  C_16
REMARK   10  A    between atoms: C_16  and  O_17
REMARK   11  A    between atoms: C_18  and  O_19
REMARK   12  A    between atoms: C_20  and  O_21
REMARK   13  A    between atoms: C_22  and  O_23
REMARK                            x       y       z     vdW  Elec       q    Type
REMARK                         _______ _______ _______ _____ _____    ______ ____
ROOT
ATOM      1  O   UNL     1       0.468   0.892   0.403  0.00  0.00    -0.340 OA
ENDROOT
BRANCH   1   2
ATOM      2  C   UNL     1      -0.913   0.625   0.550  0.00  0.00    +0.282 C 
ATOM      3  O   UNL     1      -1.441   0.190  -0.695  0.00  0.00    -0.341 OA
ATOM      4  C   UNL     1      -2.795  -0.207  -0.553  0.00  0.00    +0.178 C 
ATOM      5  C   UNL     1      -3.680   1.015  -0.195  0.00  0.00    +0.177 C 
ATOM      6  C   UNL     1      -3.136   1.695   1.081  0.00  0.00    +0.179 C 
ATOM      7  C   UNL     1      -1.609   1.923   0.997  0.00  0.00    +0.201 C 
BRANCH   5   8
ATOM      8  O   UNL     1      -3.772   1.925  -1.267  0.00  0.00    -0.386 OA
ATOM      9  H   UNL     1      -2.852   2.193  -1.525  0.00  0.00    +0.210 HD
ENDBRANCH   5   8
BRANCH   6  10
ATOM     10  O   UNL     1      -3.824   2.891   1.353  0.00  0.00    -0.386 OA
ATOM     11  H   UNL     1      -3.567   3.555   0.661  0.00  0.00    +0.210 HD
ENDBRANCH   6  10
BRANCH   7  12
ATOM     12  O   UNL     1      -1.112   2.304   2.253  0.00  0.00    -0.384 OA
ATOM     13  H   UNL     1      -1.329   3.266   2.368  0.00  0.00    +0.210 HD
ENDBRANCH   7  12
BRANCH   4  14
ATOM     14  C   UNL     1      -3.248  -0.880  -1.858  0.00  0.00    +0.190 C 
BRANCH  14  15
ATOM     15  O   UNL     1      -4.579  -1.313  -1.765  0.00  0.00    -0.392 OA
ATOM     16  H   UNL     1      -4.574  -2.125  -1.193  0.00  0.00    +0.210 HD
ENDBRANCH  14  15
ENDBRANCH   4  14
ENDBRANCH   1   2
BRANCH   1  21
ATOM     17  C   UNL     1       2.427  -0.351   1.081  0.00  0.00    +0.178 C 
ATOM     18  O   UNL     1       3.498  -0.952   0.383  0.00  0.00    -0.336 OA
ATOM     19  C   UNL     1       3.112  -1.109  -0.967  0.00  0.00    +0.220 C 
ATOM     20  C   UNL     1       1.836  -0.279  -1.189  0.00  0.00    +0.207 C 
ATOM     21  C   UNL     1       1.203  -0.301   0.172  0.00  0.00    +0.186 C 
BRANCH  19  22
ATOM     22  O   UNL     1       2.861  -2.479  -1.188  0.00  0.00    -0.361 OA
ATOM     23  H   UNL     1       2.757  -2.624  -2.164  0.00  0.00    +0.213 HD
ENDBRANCH  19  22
BRANCH  20  24
ATOM     24  O   UNL     1       0.979  -0.845  -2.147  0.00  0.00    -0.384 OA
ATOM     25  H   UNL     1       1.353  -0.605  -3.034  0.00  0.00    +0.210 HD
ENDBRANCH  20  24
BRANCH  17  26
ATOM     26  C   UNL     1       2.145  -1.122   2.374  0.00  0.00    +0.190 C 
BRANCH  26  27
ATOM     27  O   UNL     1       3.269  -1.069   3.208  0.00  0.00    -0.392 OA
ATOM     28  H   UNL     1       3.038  -1.601   4.013  0.00  0.00    +0.210 HD
ENDBRANCH  26  27
ENDBRANCH  17  26
BRANCH  19  29
ATOM     29  C   UNL     1       4.260  -0.617  -1.873  0.00  0.00    +0.223 C 
BRANCH  29  30
ATOM     30  O   UNL     1       5.397  -1.420  -1.706  0.00  0.00    -0.390 OA
ATOM     31  H   UNL     1       5.883  -1.069  -0.915  0.00  0.00    +0.210 HD
ENDBRANCH  29  30
ENDBRANCH  19  29
ENDBRANCH   1  21
TORSDOF 13
