REMARK  Name = 
REMARK  3 active torsions:
REMARK  status: ('A' for Active; 'I' for Inactive)
REMARK    1  A    between atoms: N_6  and  C_9
REMARK    2  A    between atoms: C_12  and  C_13
REMARK    3  A    between atoms: C_13  and  O_14
REMARK                            x       y       z     vdW  Elec       q    Type
REMARK                         _______ _______ _______ _____ _____    ______ ____
ROOT
ATOM      1  N   UNL     1      -4.582   1.094   0.917  0.00  0.00    -0.343 N 
ATOM      2  C   UNL     1      -3.291   0.613   0.541  0.00  0.00    +0.123 A 
ATOM      3  N   UNL     1      -2.178   1.181   1.069  0.00  0.00    -0.178 NA
ATOM      4  C   UNL     1      -0.933   0.750   0.734  0.00  0.00    +0.352 A 
ATOM      5  O   UNL     1       0.066   1.304   1.267  0.00  0.00    -0.244 OA
ATOM      6  N   UNL     1      -0.775  -0.278  -0.166  0.00  0.00    -0.272 N 
ATOM      7  C   UNL     1      -1.883  -0.879  -0.697  0.00  0.00    +0.096 A 
ATOM      8  C   UNL     1      -3.162  -0.442  -0.359  0.00  0.00    +0.061 A 
ATOM      9  H   UNL     1      -5.450   0.668   0.523  0.00  0.00    +0.144 HD
ATOM     10  H   UNL     1      -4.671   1.883   1.595  0.00  0.00    +0.144 HD
ENDROOT
BRANCH   6  11
ATOM     11  C   UNL     1       0.561  -0.787  -0.539  0.00  0.00    +0.235 C 
ATOM     12  C   UNL     1       1.132  -1.662   0.565  0.00  0.00    +0.126 C 
ATOM     13  S   UNL     1       2.916  -1.637   0.350  0.00  0.00    -0.123 S 
ATOM     14  C   UNL     1       2.748  -0.256  -0.828  0.00  0.00    +0.203 C 
ATOM     15  O   UNL     1       1.445   0.278  -0.783  0.00  0.00    -0.340 OA
BRANCH  14  16
ATOM     16  C   UNL     1       3.763   0.835  -0.488  0.00  0.00    +0.198 C 
BRANCH  16  17
ATOM     17  O   UNL     1       3.719   1.861  -1.443  0.00  0.00    -0.392 OA
ATOM     18  H   UNL     1       2.955   2.446  -1.199  0.00  0.00    +0.210 HD
ENDBRANCH  16  17
ENDBRANCH  14  16
ENDBRANCH   6  11
TORSDOF 3
