REMARK  Name = 
REMARK  2 active torsions:
REMARK  status: ('A' for Active; 'I' for Inactive)
REMARK    1  A    between atoms: C_4  and  N_5
REMARK    2  A    between atoms: C_6  and  C_9
REMARK                            x       y       z     vdW  Elec       q    Type
REMARK                         _______ _______ _______ _____ _____    ______ ____
ROOT
ATOM      1  N   UNL     1       4.461  -1.470   0.479  0.00  0.00    -0.326 N 
ATOM      2  C   UNL     1       3.099  -1.090   0.294  0.00  0.00    +0.234 A 
ATOM      3  N   UNL     1       2.679   0.146   0.661  0.00  0.00    -0.197 NA
ATOM      4  C   UNL     1       1.386   0.525   0.492  0.00  0.00    +0.148 A 
ATOM      5  C   UNL     1       0.479  -0.390  -0.079  0.00  0.00    +0.134 A 
ATOM      6  N   UNL     1       0.939  -1.621  -0.427  0.00  0.00    -0.142 NA
ATOM      7  N   UNL     1       2.213  -1.965  -0.246  0.00  0.00    -0.113 NA
ATOM      8  H   UNL     1       4.787  -2.422   0.200  0.00  0.00    +0.145 HD
ATOM      9  H   UNL     1       5.144  -0.800   0.897  0.00  0.00    +0.145 HD
ENDROOT
BRANCH   5  10
ATOM     10  C   UNL     1      -0.936  -0.053  -0.340  0.00  0.00    +0.025 A 
ATOM     11  C   UNL     1      -1.985  -0.787   0.258  0.00  0.00    +0.069 A 
ATOM     12 CL   UNL     1      -1.634  -2.085   1.402  0.00  0.00    -0.081 Cl
ATOM     13  C   UNL     1      -3.321  -0.457  -0.038  0.00  0.00    +0.060 A 
ATOM     14 CL   UNL     1      -4.662  -1.334   0.689  0.00  0.00    -0.082 Cl
ATOM     15  C   UNL     1      -3.605   0.586  -0.925  0.00  0.00    +0.021 A 
ATOM     16  C   UNL     1      -2.568   1.305  -1.520  0.00  0.00    +0.002 A 
ATOM     17  C   UNL     1      -1.241   0.986  -1.234  0.00  0.00    +0.012 A 
ENDBRANCH   5  10
BRANCH   4  18
ATOM     18  N   UNL     1       0.977   1.823   0.935  0.00  0.00    -0.341 N 
ATOM     19  H   UNL     1       1.684   2.485   1.326  0.00  0.00    +0.144 HD
ATOM     20  H   UNL     1      -0.024   2.119   0.936  0.00  0.00    +0.144 HD
ENDBRANCH   4  18
TORSDOF 2
