REMARK  Name = 
REMARK  7 active torsions:
REMARK  status: ('A' for Active; 'I' for Inactive)
REMARK    1  A    between atoms: C_1  and  C_2
REMARK    2  A    between atoms: C_3  and  O_4
REMARK    3  A    between atoms: O_4  and  C_5
REMARK    4  A    between atoms: C_5  and  C_6
REMARK    5  A    between atoms: C_13  and  C_14
REMARK    6  A    between atoms: C_14  and  S_15
REMARK    7  A    between atoms: S_15  and  C_17
REMARK                            x       y       z     vdW  Elec       q    Type
REMARK                         _______ _______ _______ _____ _____    ______ ____
ROOT
ATOM      1  C   UNL     1      -1.507  -1.236   1.331  0.00  0.00    +0.049 C 
ATOM      2  C   UNL     1      -2.082  -0.763   0.017  0.00  0.00    +0.013 A 
ATOM      3  C   UNL     1      -3.482  -0.721  -0.172  0.00  0.00    +0.127 A 
ATOM      4  C   UNL     1      -3.994  -0.291  -1.409  0.00  0.00    +0.065 A 
ATOM      5  C   UNL     1      -3.122   0.081  -2.428  0.00  0.00    +0.114 A 
ATOM      6  N   UNL     1      -1.782   0.015  -2.235  0.00  0.00    -0.258 NA
ATOM      7  C   UNL     1      -1.235  -0.406  -1.063  0.00  0.00    +0.060 A 
ENDROOT
BRANCH   3   8
ATOM      8  O   UNL     1      -4.323  -1.127   0.881  0.00  0.00    -0.483 OA
BRANCH   8   9
ATOM      9  C   UNL     1      -5.745  -0.996   0.929  0.00  0.00    +0.342 C 
BRANCH   9  10
ATOM     10  C   UNL     1      -6.154   0.423   1.324  0.00  0.00    +0.424 C 
ATOM     11  F   UNL     1      -5.573   0.757   2.533  0.00  0.00    -0.167 F 
ATOM     12  F   UNL     1      -5.754   1.332   0.363  0.00  0.00    -0.167 F 
ATOM     13  F   UNL     1      -7.529   0.485   1.453  0.00  0.00    -0.167 F 
ENDBRANCH   9  10
ENDBRANCH   8   9
ENDBRANCH   3   8
BRANCH   7  14
ATOM     14  C   UNL     1       0.265  -0.428  -0.956  0.00  0.00    +0.167 C 
BRANCH  14  15
ATOM     15  S   UNL     1       0.855   1.119  -0.238  0.00  0.00    +0.095 S 
ATOM     16  O   UNL     1       0.682   2.153  -1.343  0.00  0.00    -0.249 OA
BRANCH  15  17
ATOM     17  C   UNL     1       2.612   0.907  -0.126  0.00  0.00    +0.198 A 
ATOM     18  N   UNL     1       3.394   0.623  -1.200  0.00  0.00    -0.220 NA
ATOM     19  C   UNL     1       4.622   0.545  -0.655  0.00  0.00    +0.090 A 
ATOM     20  C   UNL     1       5.825   0.273  -1.301  0.00  0.00    +0.030 A 
ATOM     21  C   UNL     1       6.995   0.241  -0.517  0.00  0.00    +0.002 A 
ATOM     22  C   UNL     1       6.931   0.479   0.876  0.00  0.00    +0.002 A 
ATOM     23  C   UNL     1       5.697   0.752   1.496  0.00  0.00    +0.028 A 
ATOM     24  C   UNL     1       4.562   0.775   0.687  0.00  0.00    +0.067 A 
ATOM     25  N   UNL     1       3.293   1.007   1.041  0.00  0.00    -0.331 N 
ATOM     26  H   UNL     1       2.915   1.213   1.992  0.00  0.00    +0.168 HD
ENDBRANCH  15  17
ENDBRANCH  14  15
ENDBRANCH   7  14
TORSDOF 6
