REMARK  Name = 
REMARK  14 active torsions:
REMARK  status: ('A' for Active; 'I' for Inactive)
REMARK    1  A    between atoms: C_4  and  C_5
REMARK    2  A    between atoms: C_5  and  S_6
REMARK    3  A    between atoms: S_6  and  C_7
REMARK    4  A    between atoms: N_11  and  C_12
REMARK    5  A    between atoms: C_13  and  C_34
REMARK    6  A    between atoms: C_17  and  N_18
REMARK    7  A    between atoms: C_17  and  O_32
REMARK    8  A    between atoms: C_19  and  C_21
REMARK    9  A    between atoms: C_21  and  C_22
REMARK   10  A    between atoms: C_21  and  C_25
REMARK   11  A    between atoms: C_22  and  O_23
REMARK   12  A    between atoms: C_28  and  O_29
REMARK   13  A    between atoms: O_32  and  C_33
REMARK   14  A    between atoms: C_34  and  O_35
REMARK                            x       y       z     vdW  Elec       q    Type
REMARK                         _______ _______ _______ _____ _____    ______ ____
ROOT
ATOM      1  C   UNL     1       0.539   1.428   1.178  0.00  0.00    +0.273 C 
ATOM      2  O   UNL     1       0.762   0.227   1.895  0.00  0.00    -0.349 OA
ATOM      3  C   UNL     1       2.163   0.050   2.094  0.00  0.00    +0.196 C 
ATOM      4  C   UNL     1       2.973   0.005   0.788  0.00  0.00    -0.006 C 
ATOM      5  C   UNL     1       2.514   0.714  -0.275  0.00  0.00    +0.125 C 
ATOM      6  N   UNL     1       1.264   1.354  -0.062  0.00  0.00    -0.230 N 
ATOM      7  C   UNL     1      -0.001   1.571  -0.801  0.00  0.00    +0.277 C 
ATOM      8  O   UNL     1      -0.324   1.637  -2.016  0.00  0.00    -0.270 OA
ATOM      9  C   UNL     1      -0.752   1.560   0.514  0.00  0.00    +0.258 C 
ENDROOT
BRANCH   9  10
ATOM     10  N   UNL     1      -1.623   0.377   0.599  0.00  0.00    -0.276 N 
ATOM     11  C   UNL     1      -2.963   0.375   0.078  0.00  0.00    +0.234 C 
ATOM     12  O   UNL     1      -3.447   1.427  -0.422  0.00  0.00    -0.274 OA
ATOM     13  H   UNL     1      -1.248  -0.536   0.945  0.00  0.00    +0.152 HD
BRANCH  11  14
ATOM     14  C   UNL     1      -3.793  -0.887   0.158  0.00  0.00    +0.213 C 
BRANCH  14  15
ATOM     15  C   UNL     1      -4.958  -0.874  -0.825  0.00  0.00    -0.025 A 
ATOM     16  C   UNL     1      -4.966  -1.757  -1.921  0.00  0.00    +0.008 A 
ATOM     17  C   UNL     1      -6.031  -1.752  -2.829  0.00  0.00    +0.046 A 
ATOM     18  C   UNL     1      -7.098  -0.866  -2.657  0.00  0.00    +0.117 A 
ATOM     19  C   UNL     1      -7.093   0.027  -1.578  0.00  0.00    +0.046 A 
ATOM     20  C   UNL     1      -6.030   0.028  -0.671  0.00  0.00    +0.008 A 
BRANCH  18  21
ATOM     21  O   UNL     1      -8.159  -0.881  -3.561  0.00  0.00    -0.507 OA
ATOM     22  H   UNL     1      -8.960  -0.269  -3.446  0.00  0.00    +0.292 HD
ENDBRANCH  18  21
ENDBRANCH  14  15
BRANCH  14  23
ATOM     23  C   UNL     1      -4.225  -1.141   1.584  0.00  0.00    +0.321 C 
ATOM     24  O   UNL     1      -5.444  -1.229   1.897  0.00  0.00    -0.250 OA
BRANCH  23  25
ATOM     25  O   UNL     1      -3.256  -1.316   2.568  0.00  0.00    -0.480 OA
ATOM     26  H   UNL     1      -3.518  -1.502   3.529  0.00  0.00    +0.295 HD
ENDBRANCH  23  25
ENDBRANCH  14  23
ENDBRANCH  11  14
ENDBRANCH   9  10
BRANCH   9  27
ATOM     27  O   UNL     1      -1.443   2.740   0.933  0.00  0.00    -0.348 OA
ATOM     28  C   UNL     1      -1.179   3.876   0.137  0.00  0.00    +0.197 C 
ENDBRANCH   9  27
BRANCH   5  29
ATOM     29  C   UNL     1       3.152   0.803  -1.613  0.00  0.00    +0.351 C 
ATOM     30  O   UNL     1       2.559   1.427  -2.534  0.00  0.00    -0.244 OA
BRANCH  29  31
ATOM     31  O   UNL     1       4.394   0.234  -1.883  0.00  0.00    -0.476 OA
ATOM     32  H   UNL     1       4.818   0.319  -2.799  0.00  0.00    +0.295 HD
ENDBRANCH  29  31
ENDBRANCH   5  29
BRANCH   4  33
ATOM     33  C   UNL     1       4.263  -0.779   0.791  0.00  0.00    +0.112 C 
BRANCH  33  34
ATOM     34  S   UNL     1       5.688   0.351   0.929  0.00  0.00    -0.080 S 
BRANCH  34  35
ATOM     35  C   UNL     1       6.886  -0.980   1.026  0.00  0.00    +0.209 A 
ATOM     36  N   UNL     1       7.231  -1.607   2.164  0.00  0.00    -0.102 NA
ATOM     37  N   UNL     1       8.111  -2.528   1.794  0.00  0.00    -0.022 NA
ATOM     38  N   UNL     1       8.300  -2.478   0.483  0.00  0.00    -0.043 NA
ATOM     39  N   UNL     1       7.553  -1.508  -0.012  0.00  0.00    -0.223 N 
ATOM     40  C   UNL     1       7.434  -1.179  -1.425  0.00  0.00    +0.177 C 
ENDBRANCH  34  35
ENDBRANCH  33  34
ENDBRANCH   4  33
TORSDOF 12
