REMARK  Name = 
REMARK  19 active torsions:
REMARK  status: ('A' for Active; 'I' for Inactive)
REMARK    1  A    between atoms: C_1  and  C_2
REMARK    2  A    between atoms: C_2  and  C_3
REMARK    3  A    between atoms: C_2  and  O_4
REMARK    4  A    between atoms: O_4  and  C_5
REMARK    5  A    between atoms: C_5  and  C_7
REMARK    6  A    between atoms: C_7  and  C_8
REMARK    7  A    between atoms: C_8  and  C_9
REMARK    8  A    between atoms: C_9  and  C_10
REMARK    9  A    between atoms: C_11  and  C_12
REMARK   10  A    between atoms: C_12  and  C_13
REMARK   11  A    between atoms: C_14  and  O_15
REMARK   12  A    between atoms: C_17  and  O_18
REMARK   13  A    between atoms: C_19  and  C_20
REMARK   14  A    between atoms: C_20  and  C_21
REMARK   15  A    between atoms: C_21  and  C_22
REMARK   16  A    between atoms: C_22  and  O_23
REMARK   17  A    between atoms: C_22  and  C_24
REMARK   18  A    between atoms: C_24  and  C_25
REMARK   19  A    between atoms: C_25  and  C_26
REMARK                            x       y       z     vdW  Elec       q    Type
REMARK                         _______ _______ _______ _____ _____    ______ ____
ROOT
ATOM      1  C   UNL     1       0.002  -1.065   0.323  0.00  0.00    +0.027 C 
ATOM      2  C   UNL     1       0.208  -2.039   1.490  0.00  0.00    +0.121 C 
ATOM      3  C   UNL     1       0.723  -3.319   0.854  0.00  0.00    +0.063 C 
ATOM      4  C   UNL     1       1.529  -2.881  -0.369  0.00  0.00    +0.120 C 
ATOM      5  C   UNL     1       1.154  -1.405  -0.660  0.00  0.00    +0.024 C 
ENDROOT
BRANCH   2   6
ATOM      6  O   UNL     1      -0.969  -2.266   2.220  0.00  0.00    -0.391 OA
ATOM      7  H   UNL     1      -0.702  -2.756   3.041  0.00  0.00    +0.210 HD
ENDBRANCH   2   6
BRANCH   4   8
ATOM      8  O   UNL     1       1.208  -3.703  -1.462  0.00  0.00    -0.391 OA
ATOM      9  H   UNL     1       1.880  -3.517  -2.167  0.00  0.00    +0.210 HD
ENDBRANCH   4   8
BRANCH   1  10
ATOM     10  C   UNL     1      -1.381  -1.210  -0.372  0.00  0.00    +0.033 C 
BRANCH  10  12
ATOM     11  C   UNL     1      -2.768   0.755   0.413  0.00  0.00    -0.031 C 
ATOM     12  C   UNL     1      -2.490  -0.562   0.423  0.00  0.00    -0.031 C 
BRANCH  11  13
ATOM     13  C   UNL     1      -2.087   1.775  -0.467  0.00  0.00    +0.027 C 
BRANCH  13  14
ATOM     14  C   UNL     1      -2.700   1.842  -1.877  0.00  0.00    +0.015 C 
BRANCH  14  15
ATOM     15  C   UNL     1      -4.079   2.523  -1.918  0.00  0.00    +0.121 C 
BRANCH  15  16
ATOM     16  C   UNL     1      -5.174   1.606  -1.469  0.00  0.00    +0.307 C 
ATOM     17  O   UNL     1      -5.547   0.665  -2.221  0.00  0.00    -0.251 OA
BRANCH  16  18
ATOM     18  O   UNL     1      -5.753   1.787  -0.208  0.00  0.00    -0.462 OA
BRANCH  18  20
ATOM     19  C   UNL     1      -8.136   1.343  -0.318  0.00  0.00    +0.052 C 
ATOM     20  C   UNL     1      -6.793   0.956   0.307  0.00  0.00    +0.170 C 
ATOM     21  C   UNL     1      -6.844   1.113   1.825  0.00  0.00    +0.052 C 
ENDBRANCH  18  20
ENDBRANCH  16  18
ENDBRANCH  15  16
ENDBRANCH  14  15
ENDBRANCH  13  14
ENDBRANCH  11  13
ENDBRANCH  10  12
ENDBRANCH   1  10
BRANCH   5  22
ATOM     22  C   UNL     1       2.352  -0.437  -0.465  0.00  0.00    +0.009 C 
BRANCH  22  23
ATOM     23  C   UNL     1       3.330  -0.374  -1.662  0.00  0.00    +0.032 C 
BRANCH  23  24
ATOM     24  C   UNL     1       4.435  -1.456  -1.712  0.00  0.00    +0.115 C 
BRANCH  24  25
ATOM     25  O   UNL     1       5.253  -1.230  -2.832  0.00  0.00    -0.392 OA
ATOM     26  H   UNL     1       4.733  -1.502  -3.633  0.00  0.00    +0.210 HD
ENDBRANCH  24  25
BRANCH  24  27
ATOM     27  C   UNL     1       5.329  -1.540  -0.453  0.00  0.00    +0.036 C 
BRANCH  27  28
ATOM     28  C   UNL     1       6.136  -0.262  -0.131  0.00  0.00    +0.037 C 
BRANCH  28  29
ATOM     29  C   UNL     1       5.381   0.711   0.743  0.00  0.00    -0.047 A 
ATOM     30  C   UNL     1       5.012   0.351   2.052  0.00  0.00    +0.003 A 
ATOM     31  C   UNL     1       4.299   1.246   2.856  0.00  0.00    +0.000 A 
ATOM     32  C   UNL     1       3.967   2.513   2.369  0.00  0.00    +0.000 A 
ATOM     33  C   UNL     1       4.357   2.891   1.082  0.00  0.00    +0.000 A 
ATOM     34  C   UNL     1       5.069   1.999   0.274  0.00  0.00    +0.003 A 
ENDBRANCH  28  29
ENDBRANCH  27  28
ENDBRANCH  24  27
ENDBRANCH  23  24
ENDBRANCH  22  23
ENDBRANCH   5  22
TORSDOF 17
