REMARK  Name = 
REMARK  4 active torsions:
REMARK  status: ('A' for Active; 'I' for Inactive)
REMARK    1  A    between atoms: C_1  and  C_2
REMARK    2  A    between atoms: C_3  and  C_7
REMARK    3  A    between atoms: N_9  and  C_10
REMARK    4  A    between atoms: C_13  and  C_16
REMARK                            x       y       z     vdW  Elec       q    Type
REMARK                         _______ _______ _______ _____ _____    ______ ____
ROOT
ATOM      1  C   UNL     1       1.559   0.123   0.387  0.00  0.00    +0.253 C 
ATOM      2  O   UNL     1       1.296   1.353   0.308  0.00  0.00    -0.270 OA
ATOM      3  N   UNL     1       0.497  -0.827   0.577  0.00  0.00    -0.281 N 
ATOM      4  H   UNL     1       0.732  -1.747   1.013  0.00  0.00    +0.155 HD
ENDROOT
BRANCH   1   7
ATOM      5  C   UNL     1       4.218   1.930   0.254  0.00  0.00    +0.090 C 
ATOM      6  C   UNL     1       4.115   0.440   0.260  0.00  0.00    +0.146 A 
ATOM      7  C   UNL     1       2.965  -0.327   0.324  0.00  0.00    +0.098 A 
ATOM      8  C   UNL     1       3.430  -1.628   0.292  0.00  0.00    +0.170 A 
ATOM      9  N   UNL     1       4.775  -1.613   0.217  0.00  0.00    -0.086 NA
ATOM     10  O   UNL     1       5.149  -0.366   0.200  0.00  0.00    -0.359 OA
ENDBRANCH   1   7
BRANCH   3  11
ATOM     11  C   UNL     1      -0.890  -0.539   0.330  0.00  0.00    +0.034 A 
ATOM     12  C   UNL     1      -1.873  -1.176   1.100  0.00  0.00    +0.024 A 
ATOM     13  C   UNL     1      -3.229  -0.928   0.867  0.00  0.00    +0.014 A 
ATOM     14  C   UNL     1      -3.628  -0.063  -0.166  0.00  0.00    +0.055 A 
ATOM     15  C   UNL     1      -2.642   0.579  -0.935  0.00  0.00    +0.014 A 
ATOM     16  C   UNL     1      -1.286   0.332  -0.700  0.00  0.00    +0.024 A 
BRANCH  14  17
ATOM     17  C   UNL     1      -5.088   0.242  -0.386  0.00  0.00    +0.417 C 
ATOM     18  F   UNL     1      -5.450   1.323   0.396  0.00  0.00    -0.166 F 
ATOM     19  F   UNL     1      -5.872  -0.845  -0.043  0.00  0.00    -0.166 F 
ATOM     20  F   UNL     1      -5.329   0.546  -1.715  0.00  0.00    -0.166 F 
ENDBRANCH  14  17
ENDBRANCH   3  11
TORSDOF 3
