REMARK  Name = 
REMARK  2 active torsions:
REMARK  status: ('A' for Active; 'I' for Inactive)
REMARK    1  A    between atoms: N_1  and  C_2
REMARK    2  A    between atoms: N_9  and  C_10
REMARK                            x       y       z     vdW  Elec       q    Type
REMARK                         _______ _______ _______ _____ _____    ______ ____
ROOT
ATOM      1  C   UNL     1       3.280   0.268   1.110  0.00  0.00    +0.030 A 
ATOM      2  C   UNL     1       4.364  -0.392   0.496  0.00  0.00    +0.023 A 
ATOM      3  C   UNL     1       4.150  -1.255  -0.598  0.00  0.00    +0.003 A 
ATOM      4  C   UNL     1       2.854  -1.468  -1.091  0.00  0.00    +0.013 A 
ATOM      5  C   UNL     1       1.799  -0.804  -0.469  0.00  0.00    +0.043 A 
ATOM      6  C   UNL     1       1.993   0.043   0.602  0.00  0.00    +0.003 A 
ATOM      7  C   UNL     1       0.683   0.617   1.073  0.00  0.00    +0.146 C 
ATOM      8  N   UNL     1      -0.300   0.021   0.164  0.00  0.00    -0.282 N 
ATOM      9  C   UNL     1       0.387  -0.831  -0.752  0.00  0.00    +0.248 C 
ATOM     10  O   UNL     1      -0.170  -1.509  -1.656  0.00  0.00    -0.270 OA
ENDROOT
BRANCH   8  11
ATOM     11  C   UNL     1      -1.743   0.283   0.210  0.00  0.00    +0.163 C 
ATOM     12  C   UNL     1      -2.186   1.040  -1.055  0.00  0.00    +0.041 C 
ATOM     13  C   UNL     1      -3.703   1.254  -1.074  0.00  0.00    +0.098 C 
ATOM     14  C   UNL     1      -4.420  -0.058  -0.935  0.00  0.00    +0.219 C 
ATOM     15  O   UNL     1      -5.571  -0.197  -1.429  0.00  0.00    -0.275 OA
ATOM     16  N   UNL     1      -3.827  -1.131  -0.196  0.00  0.00    -0.255 N 
ATOM     17  C   UNL     1      -2.520  -1.000   0.374  0.00  0.00    +0.240 C 
ATOM     18  O   UNL     1      -2.050  -1.938   1.073  0.00  0.00    -0.273 OA
ATOM     19  H   UNL     1      -4.356  -2.024  -0.073  0.00  0.00    +0.158 HD
ENDBRANCH   8  11
BRANCH   1  20
ATOM     20  N   UNL     1       3.497   1.143   2.220  0.00  0.00    -0.358 N 
ATOM     21  H   UNL     1       4.460   1.304   2.590  0.00  0.00    +0.142 HD
ATOM     22  H   UNL     1       2.702   1.637   2.682  0.00  0.00    +0.142 HD
ENDBRANCH   1  20
TORSDOF 2
