REMARK  Name = 
REMARK  20 active torsions:
REMARK  status: ('A' for Active; 'I' for Inactive)
REMARK    1  A    between atoms: C_1  and  O_2
REMARK    2  A    between atoms: O_2  and  C_3
REMARK    3  A    between atoms: C_3  and  C_5
REMARK    4  A    between atoms: C_6  and  C_7
REMARK    5  A    between atoms: C_9  and  C_10
REMARK    6  A    between atoms: C_11  and  C_22
REMARK    7  A    between atoms: C_12  and  C_13
REMARK    8  A    between atoms: C_15  and  N_19
REMARK    9  A    between atoms: C_22  and  O_24
REMARK   10  A    between atoms: O_24  and  C_25
REMARK   11  A    between atoms: C_25  and  C_26
REMARK   12  A    between atoms: C_25  and  C_27
REMARK   13  A    between atoms: C_25  and  C_28
REMARK   14  A    between atoms: C_28  and  N_29
REMARK   15  A    between atoms: N_29  and  C_30
REMARK   16  A    between atoms: N_29  and  C_31
REMARK   17  A    between atoms: C_31  and  C_32
REMARK   18  A    between atoms: C_32  and  C_33
REMARK   19  A    between atoms: C_33  and  C_34
REMARK   20  A    between atoms: C_33  and  C_40
REMARK                            x       y       z     vdW  Elec       q    Type
REMARK                         _______ _______ _______ _____ _____    ______ ____
ROOT
ATOM      1  C   UNL     1       1.584  -0.539   0.949  0.00  0.00    +0.338 C 
ATOM      2  O   UNL     1       0.572  -1.060   1.492  0.00  0.00    -0.245 OA
ENDROOT
BRANCH   1   9
ATOM      3  C   UNL     1       5.332  -0.163   1.921  0.00  0.00    +0.065 C 
ATOM      4  C   UNL     1       5.595  -1.389   2.414  0.00  0.00    +0.016 C 
ATOM      5  C   UNL     1       6.900  -1.702   3.099  0.00  0.00    +0.061 C 
ATOM      6  N   UNL     1       4.604  -2.420   2.305  0.00  0.00    -0.321 N 
ATOM      7  C   UNL     1       3.265  -2.147   1.864  0.00  0.00    +0.016 C 
ATOM      8  C   UNL     1       2.252  -3.259   1.958  0.00  0.00    +0.061 C 
ATOM      9  C   UNL     1       2.956  -0.916   1.384  0.00  0.00    +0.065 C 
ATOM     10  C   UNL     1       4.063   0.100   1.139  0.00  0.00    +0.096 C 
ATOM     11  H   UNL     1       4.844  -3.384   2.626  0.00  0.00    +0.152 HD
BRANCH  10  12
ATOM     12  C   UNL     1       4.393   0.176  -0.341  0.00  0.00    -0.033 A 
ATOM     13  C   UNL     1       4.806  -0.969  -1.048  0.00  0.00    +0.037 A 
ATOM     14  C   UNL     1       5.116  -0.899  -2.418  0.00  0.00    +0.126 A 
ATOM     15  C   UNL     1       5.016   0.339  -3.076  0.00  0.00    +0.033 A 
ATOM     16  C   UNL     1       4.620   1.481  -2.378  0.00  0.00    +0.003 A 
ATOM     17  C   UNL     1       4.313   1.405  -1.018  0.00  0.00    +0.005 A 
BRANCH  14  18
ATOM     18  N   UNL     1       5.532  -2.076  -3.138  0.00  0.00    +0.056 N 
ATOM     19  O   UNL     1       5.840  -2.005  -4.477  0.00  0.00    -0.126 OA
ATOM     20  O   UNL     1       5.618  -3.180  -2.559  0.00  0.00    -0.126 OA
ENDBRANCH  14  18
ENDBRANCH  10  12
BRANCH   3  21
ATOM     21  C   UNL     1       6.318   0.925   2.014  0.00  0.00    +0.337 C 
ATOM     22  O   UNL     1       6.117   1.882   2.809  0.00  0.00    -0.245 OA
BRANCH  21  24
ATOM     23  C   UNL     1       8.468   1.890   1.277  0.00  0.00    +0.280 C 
ATOM     24  O   UNL     1       7.451   0.900   1.198  0.00  0.00    -0.465 OA
ENDBRANCH  21  24
ENDBRANCH   3  21
ENDBRANCH   1   9
BRANCH   1  25
ATOM     25  O   UNL     1       1.435   0.427  -0.059  0.00  0.00    -0.454 OA
BRANCH  25  26
ATOM     26  C   UNL     1       0.227   0.748  -0.767  0.00  0.00    +0.121 C 
ATOM     27  C   UNL     1      -0.347  -0.549  -1.379  0.00  0.00    +0.057 C 
ATOM     28  C   UNL     1       0.663   1.676  -1.913  0.00  0.00    +0.057 C 
BRANCH  26  29
ATOM     29  C   UNL     1      -0.751   1.467   0.231  0.00  0.00    +0.131 C 
BRANCH  29  30
ATOM     30  N   UNL     1      -2.053   1.962  -0.284  0.00  0.00    -0.302 NA
ATOM     31  C   UNL     1      -2.007   3.140  -1.165  0.00  0.00    +0.105 C 
BRANCH  30  32
ATOM     32  C   UNL     1      -3.033   0.936  -0.681  0.00  0.00    +0.085 C 
BRANCH  32  33
ATOM     33  C   UNL     1      -4.454   1.376  -0.297  0.00  0.00    +0.028 C 
BRANCH  33  34
ATOM     34  C   UNL     1      -5.489   0.244  -0.515  0.00  0.00    +0.050 C 
BRANCH  34  35
ATOM     35  C   UNL     1      -5.305  -0.885   0.483  0.00  0.00    -0.040 A 
ATOM     36  C   UNL     1      -5.496  -0.676   1.863  0.00  0.00    +0.004 A 
ATOM     37  C   UNL     1      -5.301  -1.722   2.772  0.00  0.00    +0.000 A 
ATOM     38  C   UNL     1      -4.912  -2.982   2.316  0.00  0.00    +0.000 A 
ATOM     39  C   UNL     1      -4.719  -3.202   0.951  0.00  0.00    +0.000 A 
ATOM     40  C   UNL     1      -4.915  -2.162   0.037  0.00  0.00    +0.004 A 
ENDBRANCH  34  35
BRANCH  34  41
ATOM     41  C   UNL     1      -6.931   0.729  -0.499  0.00  0.00    -0.040 A 
ATOM     42  C   UNL     1      -7.363   1.783   0.333  0.00  0.00    +0.004 A 
ATOM     43  C   UNL     1      -8.706   2.169   0.347  0.00  0.00    +0.000 A 
ATOM     44  C   UNL     1      -9.637   1.503  -0.452  0.00  0.00    +0.000 A 
ATOM     45  C   UNL     1      -9.226   0.445  -1.266  0.00  0.00    +0.000 A 
ATOM     46  C   UNL     1      -7.883   0.056  -1.287  0.00  0.00    +0.004 A 
ENDBRANCH  34  41
ENDBRANCH  33  34
ENDBRANCH  32  33
ENDBRANCH  30  32
ENDBRANCH  29  30
ENDBRANCH  26  29
ENDBRANCH  25  26
ENDBRANCH   1  25
TORSDOF 14
