REMARK  Name = 
REMARK  5 active torsions:
REMARK  status: ('A' for Active; 'I' for Inactive)
REMARK    1  A    between atoms: C_2  and  C_3
REMARK    2  A    between atoms: C_6  and  C_9
REMARK    3  A    between atoms: C_9  and  N_10
REMARK    4  A    between atoms: C_9  and  C_15
REMARK    5  A    between atoms: C_18  and  C_21
REMARK                            x       y       z     vdW  Elec       q    Type
REMARK                         _______ _______ _______ _____ _____    ______ ____
ROOT
ATOM      1  C   UNL     1       0.124   0.679  -0.865  0.00  0.00    +0.169 C 
ENDROOT
BRANCH   1   5
ATOM      2  C   UNL     1      -3.437  -1.751  -0.421  0.00  0.00    +0.052 A 
ATOM      3  C   UNL     1      -3.005  -1.356  -1.692  0.00  0.00    +0.019 A 
ATOM      4  C   UNL     1      -1.854  -0.574  -1.831  0.00  0.00    +0.007 A 
ATOM      5  C   UNL     1      -1.115  -0.184  -0.699  0.00  0.00    -0.019 A 
ATOM      6  C   UNL     1      -1.565  -0.578   0.576  0.00  0.00    +0.007 A 
ATOM      7  C   UNL     1      -2.716  -1.359   0.712  0.00  0.00    +0.019 A 
BRANCH   2   9
ATOM      8  N   UNL     1      -5.576  -3.200  -0.165  0.00  0.00    -0.191 NA
ATOM      9  C   UNL     1      -4.623  -2.554  -0.279  0.00  0.00    +0.099 C 
ENDBRANCH   2   9
ENDBRANCH   1   5
BRANCH   1  10
ATOM     10  C   UNL     1       1.313   0.082  -0.132  0.00  0.00    -0.019 A 
ATOM     11  C   UNL     1       1.661   0.483   1.174  0.00  0.00    +0.007 A 
ATOM     12  C   UNL     1       2.741  -0.111   1.834  0.00  0.00    +0.019 A 
ATOM     13  C   UNL     1       3.481  -1.118   1.206  0.00  0.00    +0.052 A 
ATOM     14  C   UNL     1       3.135  -1.534  -0.085  0.00  0.00    +0.019 A 
ATOM     15  C   UNL     1       2.055  -0.942  -0.746  0.00  0.00    +0.007 A 
BRANCH  13  16
ATOM     16  C   UNL     1       4.591  -1.730   1.887  0.00  0.00    +0.099 C 
ATOM     17  N   UNL     1       5.484  -2.221   2.436  0.00  0.00    -0.191 NA
ENDBRANCH  13  16
ENDBRANCH   1  10
BRANCH   1  18
ATOM     18  N   UNL     1      -0.130   2.066  -0.454  0.00  0.00    -0.240 N 
ATOM     19  C   UNL     1       0.548   3.151  -0.864  0.00  0.00    +0.220 A 
ATOM     20  N   UNL     1       0.100   4.265  -0.255  0.00  0.00    -0.223 NA
ATOM     21  C   UNL     1      -0.877   3.787   0.545  0.00  0.00    +0.245 A 
ATOM     22  N   UNL     1      -1.024   2.453   0.439  0.00  0.00    -0.158 NA
ENDBRANCH   1  18
TORSDOF 5
