REMARK  Name = 
REMARK  1 active torsions:
REMARK  status: ('A' for Active; 'I' for Inactive)
REMARK    1  A    between atoms: C_5  and  C_9
REMARK                            x       y       z     vdW  Elec       q    Type
REMARK                         _______ _______ _______ _____ _____    ______ ____
ROOT
ATOM      1  C   UNL     1      -4.031  -0.496   0.745  0.00  0.00    +0.096 C 
ATOM      2  C   UNL     1      -3.299   0.141  -0.452  0.00  0.00    +0.118 C 
ATOM      3  N   UNL     1      -1.877  -0.015  -0.218  0.00  0.00    -0.307 N 
ATOM      4  C   UNL     1      -0.815   0.774  -0.818  0.00  0.00    +0.138 C 
ATOM      5  C   UNL     1       0.169   1.004   0.354  0.00  0.00    +0.155 C 
ATOM      6  N   UNL     1      -0.500   0.432   1.521  0.00  0.00    -0.254 NA
ATOM      7  C   UNL     1      -1.573  -0.164   1.135  0.00  0.00    +0.153 C 
ATOM      8  S   UNL     1      -2.913  -0.599   2.204  0.00  0.00    -0.089 S 
ENDROOT
BRANCH   5   9
ATOM      9  C   UNL     1       1.507   0.335   0.124  0.00  0.00    -0.022 A 
ATOM     10  C   UNL     1       2.658   1.117  -0.079  0.00  0.00    +0.006 A 
ATOM     11  C   UNL     1       3.895   0.506  -0.310  0.00  0.00    +0.000 A 
ATOM     12  C   UNL     1       3.994  -0.887  -0.347  0.00  0.00    +0.000 A 
ATOM     13  C   UNL     1       2.855  -1.673  -0.156  0.00  0.00    +0.000 A 
ATOM     14  C   UNL     1       1.616  -1.068   0.076  0.00  0.00    +0.006 A 
ENDBRANCH   5   9
TORSDOF 1
