REMARK  Name = 
REMARK  3 active torsions:
REMARK  status: ('A' for Active; 'I' for Inactive)
REMARK    1  A    between atoms: N_9  and  C_10
REMARK    2  A    between atoms: C_10  and  C_11
REMARK    3  A    between atoms: C_18  and  O_19
REMARK                            x       y       z     vdW  Elec       q    Type
REMARK                         _______ _______ _______ _____ _____    ______ ____
ROOT
ATOM      1  C   UNL     1       0.326   1.180   0.497  0.00  0.00    +0.017 C 
ATOM      2  C   UNL     1      -0.162   1.801   1.819  0.00  0.00    +0.006 C 
ATOM      3  C   UNL     1      -1.038   3.047   1.554  0.00  0.00    +0.000 C 
ATOM      4  C   UNL     1      -1.576   3.131   0.110  0.00  0.00    +0.001 C 
ATOM      5  C   UNL     1      -2.003   1.751  -0.412  0.00  0.00    +0.012 C 
ATOM      6  C   UNL     1      -0.866   0.662  -0.359  0.00  0.00    +0.002 C 
ATOM      7  C   UNL     1      -0.290   0.379  -1.768  0.00  0.00    +0.027 C 
ATOM      8  C   UNL     1       0.871  -0.641  -1.709  0.00  0.00    +0.086 C 
ATOM      9  N   UNL     1       1.902  -0.256  -0.718  0.00  0.00    -0.295 NA
ATOM     10  C   UNL     1       1.367   0.065   0.641  0.00  0.00    +0.065 C 
ATOM     11  C   UNL     1       0.777  -1.139   1.415  0.00  0.00    +0.054 C 
ATOM     12  C   UNL     1      -0.617  -1.523   0.985  0.00  0.00    -0.042 A 
ATOM     13  C   UNL     1      -1.421  -0.668   0.188  0.00  0.00    -0.034 A 
ATOM     14  C   UNL     1      -2.676  -1.147  -0.251  0.00  0.00    +0.049 A 
ATOM     15  C   UNL     1      -3.166  -2.385   0.179  0.00  0.00    +0.117 A 
ATOM     16  C   UNL     1      -2.396  -3.179   1.027  0.00  0.00    +0.045 A 
ATOM     17  C   UNL     1      -1.128  -2.756   1.421  0.00  0.00    +0.007 A 
ENDROOT
BRANCH  15  18
ATOM     18  O   UNL     1      -4.416  -2.838  -0.237  0.00  0.00    -0.507 OA
ATOM     19  H   UNL     1      -5.001  -2.287  -0.854  0.00  0.00    +0.292 HD
ENDBRANCH  15  18
BRANCH   9  20
ATOM     20  C   UNL     1       3.039  -1.203  -0.740  0.00  0.00    +0.111 C 
BRANCH  20  21
ATOM     21  C   UNL     1       4.204  -0.699   0.069  0.00  0.00    -0.019 C 
ATOM     22  C   UNL     1       4.839   0.431  -0.253  0.00  0.00    +0.005 C 
ENDBRANCH  20  21
ENDBRANCH   9  20
TORSDOF 3
