REMARK  Name = 
REMARK  5 active torsions:
REMARK  status: ('A' for Active; 'I' for Inactive)
REMARK    1  A    between atoms: C_1  and  C_2
REMARK    2  A    between atoms: C_9  and  C_10
REMARK    3  A    between atoms: C_10  and  O_11
REMARK    4  A    between atoms: C_19  and  N_20
REMARK    5  A    between atoms: N_23  and  C_24
REMARK                            x       y       z     vdW  Elec       q    Type
REMARK                         _______ _______ _______ _____ _____    ______ ____
ROOT
ATOM      1  C   UNL     1      -2.733   2.656   0.948  0.00  0.00    +0.034 C 
ATOM      2  C   UNL     1      -2.625   1.938  -0.403  0.00  0.00    +0.122 C 
ATOM      3  C   UNL     1      -1.268   2.223  -1.066  0.00  0.00    +0.254 C 
ATOM      4  O   UNL     1      -0.238   1.495  -0.406  0.00  0.00    -0.486 OA
ATOM      5  C   UNL     1      -0.439   0.169  -0.019  0.00  0.00    +0.168 A 
ATOM      6  C   UNL     1      -1.751  -0.341   0.038  0.00  0.00    +0.097 A 
ATOM      7  N   UNL     1      -2.820   0.484  -0.214  0.00  0.00    -0.337 N 
ATOM      8  C   UNL     1      -4.095  -0.008  -0.191  0.00  0.00    +0.105 A 
ATOM      9  C   UNL     1      -4.356  -1.360   0.091  0.00  0.00    +0.122 A 
ATOM     10  C   UNL     1      -3.269  -2.209   0.380  0.00  0.00    +0.204 A 
ATOM     11  O   UNL     1      -3.466  -3.425   0.655  0.00  0.00    -0.286 OA
ATOM     12  C   UNL     1      -1.958  -1.701   0.363  0.00  0.00    +0.052 A 
ATOM     13  C   UNL     1      -0.850  -2.513   0.670  0.00  0.00    +0.054 A 
ATOM     14  C   UNL     1       0.443  -1.985   0.655  0.00  0.00    +0.149 A 
ATOM     15  F   UNL     1       1.495  -2.792   0.944  0.00  0.00    -0.203 F 
ATOM     16  C   UNL     1       0.657  -0.644   0.310  0.00  0.00    +0.110 A 
ENDROOT
BRANCH  16  17
ATOM     17  N   UNL     1       1.992  -0.119   0.270  0.00  0.00    -0.322 N 
ATOM     18  C   UNL     1       2.688   0.145   1.534  0.00  0.00    +0.120 C 
ATOM     19  C   UNL     1       4.128   0.589   1.280  0.00  0.00    +0.103 C 
ATOM     20  N   UNL     1       4.692  -0.239   0.201  0.00  0.00    -0.302 NA
ATOM     21  C   UNL     1       6.150  -0.062   0.124  0.00  0.00    +0.105 C 
ATOM     22  C   UNL     1       4.065   0.074  -1.104  0.00  0.00    +0.103 C 
ATOM     23  C   UNL     1       2.550   0.363  -0.999  0.00  0.00    +0.120 C 
ENDBRANCH  16  17
BRANCH   9  24
ATOM     24  C   UNL     1      -5.761  -1.850   0.097  0.00  0.00    +0.342 C 
ATOM     25  O   UNL     1      -6.711  -1.060  -0.158  0.00  0.00    -0.245 OA
BRANCH  24  26
ATOM     26  O   UNL     1      -6.053  -3.182   0.379  0.00  0.00    -0.477 OA
ATOM     27  H   UNL     1      -7.010  -3.516   0.382  0.00  0.00    +0.295 HD
ENDBRANCH  24  26
ENDBRANCH   9  24
TORSDOF 3
