REMARK  Name = 
REMARK  8 active torsions:
REMARK  status: ('A' for Active; 'I' for Inactive)
REMARK    1  A    between atoms: C_1  and  C_2
REMARK    2  A    between atoms: C_2  and  C_3
REMARK    3  A    between atoms: C_3  and  C_4
REMARK    4  A    between atoms: C_4  and  N_5
REMARK    5  A    between atoms: C_10  and  C_11
REMARK    6  A    between atoms: N_13  and  C_14
REMARK    7  A    between atoms: C_15  and  C_16
REMARK    8  A    between atoms: C_20  and  C_21
REMARK                            x       y       z     vdW  Elec       q    Type
REMARK                         _______ _______ _______ _____ _____    ______ ____
ROOT
ATOM      1  C   UNL     1       0.671   0.987  -0.134  0.00  0.00    +0.234 C 
ATOM      2  O   UNL     1       0.908   1.319   1.058  0.00  0.00    -0.274 OA
ATOM      3  N   UNL     1       1.486  -0.006  -0.773  0.00  0.00    -0.284 N 
ATOM      4  H   UNL     1       1.202  -0.366  -1.713  0.00  0.00    +0.155 HD
ENDROOT
BRANCH   3   5
ATOM      5  C   UNL     1       2.554  -0.675  -0.085  0.00  0.00    +0.039 A 
ATOM      6  C   UNL     1       3.726   0.028   0.287  0.00  0.00    -0.029 A 
ATOM      7  C   UNL     1       3.903   1.490  -0.026  0.00  0.00    +0.045 C 
ATOM      8  C   UNL     1       4.740  -0.643   0.987  0.00  0.00    +0.005 A 
ATOM      9  C   UNL     1       4.622  -2.002   1.273  0.00  0.00    +0.001 A 
ATOM     10  C   UNL     1       3.489  -2.709   0.871  0.00  0.00    +0.005 A 
ATOM     11  C   UNL     1       2.449  -2.056   0.191  0.00  0.00    -0.029 A 
ATOM     12  C   UNL     1       1.224  -2.830  -0.216  0.00  0.00    +0.045 C 
ENDBRANCH   3   5
BRANCH   1  18
ATOM     13  N   UNL     1      -1.821   1.131  -0.426  0.00  0.00    -0.291 NA
ATOM     14  C   UNL     1      -2.199   1.680   0.895  0.00  0.00    +0.085 C 
ATOM     15  C   UNL     1      -2.241   3.208   0.848  0.00  0.00    +0.015 C 
ATOM     16  C   UNL     1      -0.887   3.773   0.424  0.00  0.00    +0.003 C 
ATOM     17  C   UNL     1      -0.426   3.152  -0.898  0.00  0.00    +0.028 C 
ATOM     18  C   UNL     1      -0.492   1.610  -0.890  0.00  0.00    +0.143 C 
BRANCH  13  19
ATOM     19  C   UNL     1      -1.933  -0.345  -0.461  0.00  0.00    +0.085 C 
BRANCH  19  20
ATOM     20  C   UNL     1      -3.374  -0.769  -0.780  0.00  0.00    +0.015 C 
BRANCH  20  22
ATOM     21  C   UNL     1      -3.283  -3.116   0.212  0.00  0.00    +0.004 C 
ATOM     22  C   UNL     1      -3.502  -2.276  -1.046  0.00  0.00    -0.002 C 
ENDBRANCH  20  22
ENDBRANCH  19  20
ENDBRANCH  13  19
ENDBRANCH   1  18
TORSDOF 5
