REMARK  Name = 
REMARK  8 active torsions:
REMARK  status: ('A' for Active; 'I' for Inactive)
REMARK    1  A    between atoms: N_1  and  CA_2
REMARK    2  A    between atoms: CA_2  and  C_3
REMARK    3  A    between atoms: CA_2  and  C_22
REMARK    4  A    between atoms: C_3  and  C_4
REMARK    5  A    between atoms: C_8  and  O_9
REMARK    6  A    between atoms: O_9  and  C_10
REMARK    7  A    between atoms: C_14  and  O_15
REMARK    8  A    between atoms: C_22  and  O_23
REMARK                            x       y       z     vdW  Elec       q    Type
REMARK                         _______ _______ _______ _____ _____    ______ ____
ROOT
ATOM      1  C   UNL     1       0.573   2.507   1.537  0.00  0.00    -0.043 A 
ATOM      2  C   UNL     1      -0.152   2.577   0.353  0.00  0.00    +0.021 A 
ATOM      3  C   UNL     1      -0.468   3.728  -0.340  0.00  0.00    +0.057 A 
ATOM      4  I   UNL     1      -1.115   3.151  -2.306  0.00  0.00    -0.040 I 
ATOM      5  C   UNL     1      -0.185   4.952   0.251  0.00  0.00    +0.155 A 
ATOM      6  C   UNL     1       0.577   4.920   1.458  0.00  0.00    +0.057 A 
ATOM      7  I   UNL     1       1.320   6.681   2.350  0.00  0.00    -0.040 I 
ATOM      8  C   UNL     1       0.966   3.714   2.087  0.00  0.00    +0.021 A 
ENDROOT
BRANCH   1   9
ATOM      9  C   UNL     1       0.956   1.167   2.126  0.00  0.00    +0.065 C 
BRANCH   9  10
ATOM     10  CA  UNL     1       0.445  -0.089   1.366  0.00  0.00    +0.165 C 
BRANCH  10  11
ATOM     11  N   UNL     1       1.038  -0.207  -0.004  0.00  0.00    -0.318 NA
ATOM     12  H1  UNL     1       0.792   0.590  -0.594  0.00  0.00    +0.119 HD
ATOM     13  H2  UNL     1       2.052  -0.083   0.066  0.00  0.00    +0.119 HD
ENDBRANCH  10  11
BRANCH  10  14
ATOM     14  C   UNL     1      -1.127  -0.193   1.414  0.00  0.00    +0.322 C 
ATOM     15  OXT UNL     1      -1.935   0.661   1.053  0.00  0.00    -0.249 OA
BRANCH  14  16
ATOM     16  O   UNL     1      -1.609  -1.326   1.963  0.00  0.00    -0.480 OA
ATOM     17  H   UNL     1      -0.941  -1.986   2.207  0.00  0.00    +0.295 HD
ENDBRANCH  14  16
ENDBRANCH  10  14
ENDBRANCH   9  10
ENDBRANCH   1   9
BRANCH   5  18
ATOM     18  O   UNL     1      -0.542   6.197  -0.220  0.00  0.00    -0.454 OA
BRANCH  18  19
ATOM     19  C   UNL     1      -1.426   6.297  -1.266  0.00  0.00    +0.131 A 
ATOM     20  C   UNL     1      -2.740   5.815  -1.202  0.00  0.00    +0.064 A 
ATOM     21  C   UNL     1      -3.514   5.794  -2.371  0.00  0.00    +0.059 A 
ATOM     22  I   UNL     1      -5.322   4.728  -2.352  0.00  0.00    -0.040 I 
ATOM     23  C   UNL     1      -3.013   6.334  -3.565  0.00  0.00    +0.143 A 
ATOM     24  C   UNL     1      -1.720   6.872  -3.593  0.00  0.00    +0.059 A 
ATOM     25  I   UNL     1      -0.881   7.644  -5.346  0.00  0.00    -0.040 I 
ATOM     26  C   UNL     1      -0.924   6.851  -2.445  0.00  0.00    +0.064 A 
BRANCH  23  27
ATOM     27  O   UNL     1      -3.751   6.314  -4.720  0.00  0.00    -0.505 OA
ATOM     28  H   UNL     1      -4.610   5.898  -4.527  0.00  0.00    +0.292 HD
ENDBRANCH  23  27
ENDBRANCH  18  19
ENDBRANCH   5  18
TORSDOF 8
