REMARK  Name = 
REMARK  8 active torsions:
REMARK  status: ('A' for Active; 'I' for Inactive)
REMARK    1  A    between atoms: C_1  and  C_2
REMARK    2  A    between atoms: C_2  and  N_3
REMARK    3  A    between atoms: N_3  and  C_4
REMARK    4  A    between atoms: C_4  and  C_5
REMARK    5  A    between atoms: C_6  and  C_8
REMARK    6  A    between atoms: C_8  and  C_13
REMARK    7  A    between atoms: C_10  and  C_11
REMARK    8  A    between atoms: C_11  and  N_12
REMARK                            x       y       z     vdW  Elec       q    Type
REMARK                         _______ _______ _______ _____ _____    ______ ____
ROOT
ATOM      1  C   UNL     1      -0.710   0.164   0.045  0.00  0.00    +0.076 C 
ATOM      2  C   UNL     1      -0.827   1.268   1.101  0.00  0.00    +0.027 C 
ATOM      3  C   UNL     1      -1.770   1.270  -0.095  0.00  0.00    +0.023 C 
ENDROOT
BRANCH   1   4
ATOM      4  C   UNL     1      -1.290  -1.190   0.368  0.00  0.00    -0.032 A 
ATOM      5  C   UNL     1      -1.036  -1.815   1.601  0.00  0.00    +0.004 A 
ATOM      6  C   UNL     1      -1.557  -3.085   1.868  0.00  0.00    +0.000 A 
ATOM      7  C   UNL     1      -2.329  -3.742   0.907  0.00  0.00    +0.000 A 
ATOM      8  C   UNL     1      -2.580  -3.131  -0.325  0.00  0.00    +0.000 A 
ATOM      9  C   UNL     1      -2.060  -1.862  -0.596  0.00  0.00    +0.004 A 
ENDBRANCH   1   4
BRANCH   1  11
ATOM     10  N   UNL     1       1.831   0.294  -0.433  0.00  0.00    -0.301 N 
ATOM     11  C   UNL     1       0.466   0.215  -0.903  0.00  0.00    +0.226 C 
ATOM     12  O   UNL     1       0.236   0.163  -2.142  0.00  0.00    -0.275 OA
BRANCH  10  14
ATOM     13  C   UNL     1       2.760   2.287  -1.541  0.00  0.00    +0.024 C 
ATOM     14  C   UNL     1       2.881   0.780  -1.340  0.00  0.00    +0.104 C 
ENDBRANCH  10  14
BRANCH  10  15
ATOM     15  C   UNL     1       2.221  -0.263   0.870  0.00  0.00    +0.104 C 
ATOM     16  C   UNL     1       2.447  -1.766   0.757  0.00  0.00    +0.024 C 
ENDBRANCH  10  15
ENDBRANCH   1  11
BRANCH   3  17
ATOM     17  C   UNL     1      -1.531   2.424  -1.083  0.00  0.00    +0.082 C 
BRANCH  17  18
ATOM     18  N   UNL     1      -2.332   3.579  -0.693  0.00  0.00    -0.330 NA
ATOM     19  H   UNL     1      -2.111   4.358  -1.355  0.00  0.00    +0.118 HD
ATOM     20  H   UNL     1      -3.340   3.343  -0.840  0.00  0.00    +0.118 HD
ENDBRANCH  17  18
ENDBRANCH   3  17
TORSDOF 6
