REMARK  Name = 
REMARK  7 active torsions:
REMARK  status: ('A' for Active; 'I' for Inactive)
REMARK    1  A    between atoms: N_1  and  CA_2
REMARK    2  A    between atoms: CA_2  and  C_3
REMARK    3  A    between atoms: CA_2  and  C_12
REMARK    4  A    between atoms: C_3  and  C_4
REMARK    5  A    between atoms: C_6  and  O_7
REMARK    6  A    between atoms: C_8  and  O_9
REMARK    7  A    between atoms: C_12  and  O_13
REMARK                            x       y       z     vdW  Elec       q    Type
REMARK                         _______ _______ _______ _____ _____    ______ ____
ROOT
ATOM      1  C   UNL     1       0.479   0.398   0.250  0.00  0.00    -0.042 A 
ATOM      2  C   UNL     1       1.084   0.789  -0.956  0.00  0.00    +0.053 A 
ATOM      3  C   UNL     1       2.380   0.357  -1.271  0.00  0.00    +0.158 A 
ATOM      4  C   UNL     1       3.075  -0.474  -0.383  0.00  0.00    +0.158 A 
ATOM      5  C   UNL     1       2.469  -0.874   0.816  0.00  0.00    +0.049 A 
ATOM      6  C   UNL     1       1.177  -0.444   1.129  0.00  0.00    +0.007 A 
ENDROOT
BRANCH   3   7
ATOM      7  O   UNL     1       2.983   0.749  -2.465  0.00  0.00    -0.503 OA
ATOM      8  H   UNL     1       2.506   1.349  -3.128  0.00  0.00    +0.292 HD
ENDBRANCH   3   7
BRANCH   4   9
ATOM      9  O   UNL     1       4.364  -0.901  -0.700  0.00  0.00    -0.503 OA
ATOM     10  H   UNL     1       4.890  -1.503  -0.078  0.00  0.00    +0.292 HD
ENDBRANCH   4   9
BRANCH   1  11
ATOM     11  C   UNL     1      -0.926   0.836   0.576  0.00  0.00    +0.065 C 
BRANCH  11  12
ATOM     12  CA  UNL     1      -1.956  -0.229   0.158  0.00  0.00    +0.165 C 
BRANCH  12  13
ATOM     13  N   UNL     1      -1.930  -0.432  -1.293  0.00  0.00    -0.318 NA
ATOM     14  H1  UNL     1      -2.612  -1.187  -1.538  0.00  0.00    +0.119 HD
ATOM     15  H2  UNL     1      -2.241   0.442  -1.776  0.00  0.00    +0.119 HD
ENDBRANCH  12  13
BRANCH  12  16
ATOM     16  C   UNL     1      -3.336   0.163   0.618  0.00  0.00    +0.322 C 
ATOM     17  OXT UNL     1      -3.881   1.211   0.177  0.00  0.00    -0.249 OA
BRANCH  16  18
ATOM     18  O   UNL     1      -4.010  -0.634   1.537  0.00  0.00    -0.480 OA
ATOM     19  H   UNL     1      -4.938  -0.385   1.859  0.00  0.00    +0.295 HD
ENDBRANCH  16  18
ENDBRANCH  12  16
ENDBRANCH  11  12
ENDBRANCH   1  11
TORSDOF 7
