REMARK  Name = 
REMARK  10 active torsions:
REMARK  status: ('A' for Active; 'I' for Inactive)
REMARK    1  A    between atoms: C_1  and  C_2
REMARK    2  A    between atoms: C_2  and  C_3
REMARK    3  A    between atoms: C_2  and  C_4
REMARK    4  A    between atoms: C_2  and  N_5
REMARK    5  A    between atoms: N_5  and  C_6
REMARK    6  A    between atoms: C_6  and  C_7
REMARK    7  A    between atoms: C_7  and  O_8
REMARK    8  A    between atoms: C_7  and  C_9
REMARK    9  A    between atoms: C_9  and  O_10
REMARK   10  A    between atoms: O_10  and  C_11
REMARK                            x       y       z     vdW  Elec       q    Type
REMARK                         _______ _______ _______ _____ _____    ______ ____
ROOT
ATOM      1  O   UNL     1       1.159  -0.546   1.521  0.00  0.00    -0.489 OA
ENDROOT
BRANCH   1   2
ATOM      2  C   UNL     1       1.839   0.503   0.876  0.00  0.00    +0.124 A 
ATOM      3  C   UNL     1       1.326   1.815   0.841  0.00  0.00    +0.046 A 
ATOM      4  C   UNL     1       2.015   2.826   0.173  0.00  0.00    +0.004 A 
ATOM      5  C   UNL     1       3.220   2.550  -0.470  0.00  0.00    +0.012 A 
ATOM      6  C   UNL     1       3.757   1.253  -0.446  0.00  0.00    +0.024 A 
ATOM      7  C   UNL     1       3.076   0.228   0.253  0.00  0.00    +0.005 A 
ATOM      8  C   UNL     1       3.622  -1.186   0.251  0.00  0.00    +0.040 C 
ATOM      9  C   UNL     1       5.146  -1.210   0.093  0.00  0.00    +0.013 C 
ATOM     10  C   UNL     1       5.579  -0.442  -1.157  0.00  0.00    +0.080 C 
ATOM     11  C   UNL     1       5.037   0.957  -1.134  0.00  0.00    +0.164 C 
ATOM     12  O   UNL     1       5.658   1.865  -1.750  0.00  0.00    -0.292 OA
ENDBRANCH   1   2
BRANCH   1  13
ATOM     13  C   UNL     1      -0.168  -0.485   2.046  0.00  0.00    +0.261 C 
BRANCH  13  14
ATOM     14  C   UNL     1      -1.209  -0.496   0.908  0.00  0.00    +0.166 C 
BRANCH  14  15
ATOM     15  O   UNL     1      -0.991  -1.605   0.071  0.00  0.00    -0.387 OA
ATOM     16  H   UNL     1      -1.081  -2.425   0.624  0.00  0.00    +0.210 HD
ENDBRANCH  14  15
BRANCH  14  17
ATOM     17  C   UNL     1      -2.657  -0.501   1.463  0.00  0.00    +0.116 C 
BRANCH  17  18
ATOM     18  N   UNL     1      -3.589   0.341   0.687  0.00  0.00    -0.309 NA
ATOM     19  H   UNL     1      -3.210   1.314   0.605  0.00  0.00    +0.123 HD
BRANCH  18  21
ATOM     20  C   UNL     1      -5.419   0.603  -0.892  0.00  0.00    +0.027 C 
ATOM     21  C   UNL     1      -4.101  -0.147  -0.620  0.00  0.00    +0.011 C 
ATOM     22  C   UNL     1      -3.120   0.180  -1.768  0.00  0.00    +0.027 C 
ATOM     23  C   UNL     1      -4.413  -1.661  -0.613  0.00  0.00    +0.027 C 
ENDBRANCH  18  21
ENDBRANCH  17  18
ENDBRANCH  14  17
ENDBRANCH  13  14
ENDBRANCH   1  13
TORSDOF 7
