REMARK  Name = 
REMARK  2 active torsions:
REMARK  status: ('A' for Active; 'I' for Inactive)
REMARK    1  A    between atoms: N_9  and  C_10
REMARK    2  A    between atoms: C_16  and  O_17
REMARK                            x       y       z     vdW  Elec       q    Type
REMARK                         _______ _______ _______ _____ _____    ______ ____
ROOT
ATOM      1  C   UNL     1       0.633  -1.260   0.063  0.00  0.00    +0.017 C 
ATOM      2  C   UNL     1      -0.001  -2.068  -1.102  0.00  0.00    +0.006 C 
ATOM      3  C   UNL     1      -1.178  -2.912  -0.611  0.00  0.00    +0.000 C 
ATOM      4  C   UNL     1      -2.220  -2.030   0.082  0.00  0.00    +0.001 C 
ATOM      5  C   UNL     1      -1.583  -1.268   1.251  0.00  0.00    +0.012 C 
ATOM      6  C   UNL     1      -0.397  -0.357   0.799  0.00  0.00    +0.002 C 
ATOM      7  C   UNL     1       0.278   0.271   2.066  0.00  0.00    +0.027 C 
ATOM      8  C   UNL     1       1.815   0.168   2.062  0.00  0.00    +0.085 C 
ATOM      9  N   UNL     1       2.370   0.466   0.727  0.00  0.00    -0.302 NA
ATOM     10  C   UNL     1       3.840   0.406   0.760  0.00  0.00    +0.105 C 
ATOM     11  C   UNL     1       1.814  -0.361  -0.386  0.00  0.00    +0.065 C 
ATOM     12  C   UNL     1       1.349   0.604  -1.488  0.00  0.00    +0.054 C 
ATOM     13  C   UNL     1       0.022   1.263  -1.171  0.00  0.00    -0.042 A 
ATOM     14  C   UNL     1      -0.837   0.794  -0.134  0.00  0.00    -0.034 A 
ATOM     15  C   UNL     1      -2.030   1.510   0.116  0.00  0.00    +0.049 A 
ATOM     16  C   UNL     1      -2.407   2.590  -0.691  0.00  0.00    +0.117 A 
ATOM     17  C   UNL     1      -1.587   2.993  -1.742  0.00  0.00    +0.045 A 
ATOM     18  C   UNL     1      -0.379   2.339  -1.977  0.00  0.00    +0.007 A 
ENDROOT
BRANCH  16  19
ATOM     19  O   UNL     1      -3.597   3.274  -0.450  0.00  0.00    -0.507 OA
ATOM     20  H   UNL     1      -4.218   3.010   0.306  0.00  0.00    +0.292 HD
ENDBRANCH  16  19
TORSDOF 1
