REMARK  Name = 
REMARK  7 active torsions:
REMARK  status: ('A' for Active; 'I' for Inactive)
REMARK    1  A    between atoms: C_1  and  C_2
REMARK    2  A    between atoms: N_4  and  C_17
REMARK    3  A    between atoms: C_7  and  C_8
REMARK    4  A    between atoms: C_7  and  C_11
REMARK    5  A    between atoms: C_8  and  O_9
REMARK    6  A    between atoms: C_20  and  C_23
REMARK    7  A    between atoms: C_20  and  C_25
REMARK                            x       y       z     vdW  Elec       q    Type
REMARK                         _______ _______ _______ _____ _____    ______ ____
ROOT
ATOM      1  C   UNL     1      -3.039  -0.325   2.297  0.00  0.00    +0.010 C 
ATOM      2  C   UNL     1      -2.528  -1.010   1.018  0.00  0.00    +0.021 C 
ATOM      3  C   UNL     1      -1.174  -0.413   0.609  0.00  0.00    +0.089 C 
ATOM      4  N   UNL     1      -0.549  -1.289  -0.400  0.00  0.00    -0.299 NA
ATOM      5  C   UNL     1      -1.339  -1.273  -1.643  0.00  0.00    +0.086 C 
ATOM      6  C   UNL     1      -2.788  -1.753  -1.388  0.00  0.00    +0.038 C 
ATOM      7  C   UNL     1      -3.527  -1.038  -0.205  0.00  0.00    +0.097 C 
ENDROOT
BRANCH   7   8
ATOM      8  C   UNL     1      -4.065   0.379  -0.568  0.00  0.00    -0.030 A 
ATOM      9  C   UNL     1      -4.976   1.027   0.302  0.00  0.00    +0.005 A 
ATOM     10  C   UNL     1      -5.473   2.302   0.020  0.00  0.00    +0.000 A 
ATOM     11  C   UNL     1      -5.105   2.952  -1.154  0.00  0.00    +0.000 A 
ATOM     12  C   UNL     1      -4.263   2.315  -2.061  0.00  0.00    +0.000 A 
ATOM     13  C   UNL     1      -3.763   1.039  -1.786  0.00  0.00    +0.005 A 
ENDBRANCH   7   8
BRANCH   4  14
ATOM     14  C   UNL     1       0.894  -1.013  -0.644  0.00  0.00    +0.057 C 
ATOM     15  C   UNL     1       1.762  -1.706   0.437  0.00  0.00    +0.021 C 
ATOM     16  C   UNL     1       3.060  -0.940   0.769  0.00  0.00    +0.028 C 
ATOM     17  C   UNL     1       3.711  -0.267  -0.472  0.00  0.00    +0.082 C 
ATOM     18  C   UNL     1       2.701   0.692  -1.198  0.00  0.00    +0.028 C 
ATOM     19  C   UNL     1       1.235   0.492  -0.774  0.00  0.00    +0.021 C 
BRANCH  17  20
ATOM     20  C   UNL     1       4.955   0.523  -0.015  0.00  0.00    -0.027 A 
ATOM     21  C   UNL     1       4.799   1.610   0.876  0.00  0.00    +0.008 A 
ATOM     22  C   UNL     1       5.902   2.341   1.323  0.00  0.00    +0.038 A 
ATOM     23  C   UNL     1       7.186   2.002   0.898  0.00  0.00    +0.123 A 
ATOM     24  F   UNL     1       8.255   2.713   1.334  0.00  0.00    -0.205 F 
ATOM     25  C   UNL     1       7.369   0.932   0.024  0.00  0.00    +0.038 A 
ATOM     26  C   UNL     1       6.270   0.195  -0.429  0.00  0.00    +0.008 A 
ENDBRANCH  17  20
BRANCH  17  27
ATOM     27  C   UNL     1       4.077  -1.350  -1.420  0.00  0.00    +0.074 C 
ATOM     28  N   UNL     1       4.357  -2.196  -2.159  0.00  0.00    -0.196 NA
ENDBRANCH  17  27
ENDBRANCH   4  14
BRANCH   7  29
ATOM     29  C   UNL     1      -4.729  -1.923   0.112  0.00  0.00    +0.316 C 
ATOM     30  O   UNL     1      -5.759  -1.870  -0.615  0.00  0.00    -0.250 OA
BRANCH  29  31
ATOM     31  O   UNL     1      -4.679  -2.858   1.144  0.00  0.00    -0.480 OA
ATOM     32  H   UNL     1      -5.467  -3.464   1.336  0.00  0.00    +0.295 HD
ENDBRANCH  29  31
ENDBRANCH   7  29
TORSDOF 6
