REMARK  Name = 
REMARK  14 active torsions:
REMARK  status: ('A' for Active; 'I' for Inactive)
REMARK    1  A    between atoms: C_1  and  C_2
REMARK    2  A    between atoms: C_2  and  C_3
REMARK    3  A    between atoms: C_3  and  O_4
REMARK    4  A    between atoms: C_3  and  C_8
REMARK    5  A    between atoms: O_4  and  C_5
REMARK    6  A    between atoms: C_5  and  C_6
REMARK    7  A    between atoms: C_8  and  C_9
REMARK    8  A    between atoms: C_8  and  C_15
REMARK    9  A    between atoms: C_8  and  C_21
REMARK   10  A    between atoms: C_9  and  C_10
REMARK   11  A    between atoms: C_10  and  C_11
REMARK   12  A    between atoms: C_10  and  N_12
REMARK   13  A    between atoms: N_12  and  C_13
REMARK   14  A    between atoms: N_12  and  C_14
REMARK                            x       y       z     vdW  Elec       q    Type
REMARK                         _______ _______ _______ _____ _____    ______ ____
ROOT
ATOM      1  C   UNL     1      -0.469   0.282  -0.179  0.00  0.00    +0.059 C 
ENDROOT
BRANCH   1   2
ATOM      2  C   UNL     1      -0.495   1.522  -1.119  0.00  0.00    -0.033 A 
ATOM      3  C   UNL     1      -1.151   2.720  -0.739  0.00  0.00    +0.004 A 
ATOM      4  C   UNL     1      -1.238   3.807  -1.611  0.00  0.00    +0.000 A 
ATOM      5  C   UNL     1      -0.721   3.713  -2.901  0.00  0.00    +0.000 A 
ATOM      6  C   UNL     1      -0.142   2.521  -3.330  0.00  0.00    +0.000 A 
ATOM      7  C   UNL     1      -0.053   1.429  -2.462  0.00  0.00    +0.004 A 
ENDBRANCH   1   2
BRANCH   1   8
ATOM      8  C   UNL     1      -0.454   0.671   1.332  0.00  0.00    -0.033 A 
ATOM      9  C   UNL     1       0.252   1.815   1.783  0.00  0.00    +0.004 A 
ATOM     10  C   UNL     1       0.343   2.127   3.142  0.00  0.00    +0.000 A 
ATOM     11  C   UNL     1      -0.230   1.288   4.093  0.00  0.00    +0.000 A 
ATOM     12  C   UNL     1      -0.879   0.125   3.687  0.00  0.00    +0.000 A 
ATOM     13  C   UNL     1      -0.973  -0.193   2.329  0.00  0.00    +0.004 A 
ENDBRANCH   1   8
BRANCH   1  14
ATOM     14  C   UNL     1      -1.759  -0.552  -0.600  0.00  0.00    +0.191 C 
BRANCH  14  16
ATOM     15  C   UNL     1      -4.303  -0.732  -0.630  0.00  0.00    +0.007 C 
ATOM     16  C   UNL     1      -3.102   0.117  -0.212  0.00  0.00    +0.042 C 
ENDBRANCH  14  16
BRANCH  14  17
ATOM     17  O   UNL     1      -1.740  -1.889  -0.081  0.00  0.00    -0.460 OA
BRANCH  17  18
ATOM     18  C   UNL     1      -1.423  -3.030  -0.830  0.00  0.00    +0.304 C 
ATOM     19  C   UNL     1      -1.370  -4.354  -0.151  0.00  0.00    +0.136 C 
ATOM     20  O   UNL     1      -1.133  -2.945  -2.054  0.00  0.00    -0.251 OA
ENDBRANCH  17  18
ENDBRANCH  14  17
ENDBRANCH   1  14
BRANCH   1  21
ATOM     21  C   UNL     1       0.801  -0.636  -0.408  0.00  0.00    +0.038 C 
BRANCH  21  22
ATOM     22  C   UNL     1       2.236  -0.146   0.010  0.00  0.00    +0.054 C 
ATOM     23  C   UNL     1       2.664   1.080  -0.829  0.00  0.00    +0.024 C 
BRANCH  22  24
ATOM     24  N   UNL     1       3.237  -1.256  -0.136  0.00  0.00    -0.306 NA
ATOM     25  C   UNL     1       2.908  -2.421   0.717  0.00  0.00    +0.104 C 
ATOM     26  C   UNL     1       4.613  -0.815   0.185  0.00  0.00    +0.104 C 
ENDBRANCH  22  24
ENDBRANCH  21  22
ENDBRANCH   1  21
TORSDOF 9
