REMARK  Name = 
REMARK  4 active torsions:
REMARK  status: ('A' for Active; 'I' for Inactive)
REMARK    1  A    between atoms: C_4  and  O_5
REMARK    2  A    between atoms: C_4  and  C_6
REMARK    3  A    between atoms: C_8  and  C_9
REMARK    4  A    between atoms: C_9  and  C_10
REMARK                            x       y       z     vdW  Elec       q    Type
REMARK                         _______ _______ _______ _____ _____    ______ ____
ROOT
ATOM      1  C   UNL     1      -1.141   1.002  -0.327  0.00  0.00    +0.002 C 
ATOM      2  C   UNL     1      -1.947   2.259  -0.031  0.00  0.00    +0.008 C 
ATOM      3  C   UNL     1      -3.409   1.830  -0.240  0.00  0.00    +0.049 C 
ATOM      4  C   UNL     1      -3.414   0.284  -0.423  0.00  0.00    +0.132 C 
ATOM      5  C   UNL     1      -2.030  -0.163   0.166  0.00  0.00    +0.014 C 
ATOM      6  C   UNL     1      -1.405  -1.464  -0.413  0.00  0.00    +0.011 C 
ATOM      7  C   UNL     1       0.058  -1.634   0.058  0.00  0.00    +0.005 C 
ATOM      8  C   UNL     1       0.955  -0.415  -0.310  0.00  0.00    -0.000 C 
ATOM      9  C   UNL     1       2.406  -0.557   0.245  0.00  0.00    +0.019 C 
ATOM     10  C   UNL     1       3.102  -1.823  -0.321  0.00  0.00    +0.016 C 
ATOM     11  C   UNL     1       4.571  -1.895   0.093  0.00  0.00    +0.079 C 
ATOM     12  C   UNL     1       5.275  -0.628  -0.272  0.00  0.00    +0.156 C 
ATOM     13  O   UNL     1       6.508  -0.645  -0.526  0.00  0.00    -0.293 OA
ATOM     14  C   UNL     1       4.550   0.648  -0.257  0.00  0.00    +0.045 C 
ATOM     15  C   UNL     1       3.221   0.705  -0.055  0.00  0.00    -0.063 C 
ATOM     16  C   UNL     1       2.583   2.059   0.144  0.00  0.00    +0.031 C 
ATOM     17  C   UNL     1       1.154   2.100  -0.397  0.00  0.00    +0.008 C 
ATOM     18  C   UNL     1       0.324   0.932   0.164  0.00  0.00    -0.003 C 
ENDROOT
BRANCH   4  19
ATOM     19  O   UNL     1      -4.493  -0.295   0.269  0.00  0.00    -0.376 OA
ATOM     20  H   UNL     1      -5.329   0.132  -0.057  0.00  0.00    +0.211 HD
ENDBRANCH   4  19
BRANCH   4  21
ATOM     21  C   UNL     1      -3.549  -0.046  -1.865  0.00  0.00    -0.070 C 
ATOM     22  C   UNL     1      -3.661  -0.311  -3.036  0.00  0.00    +0.007 C 
ENDBRANCH   4  21
BRANCH   5  23
ATOM     23  C   UNL     1      -2.119  -0.234   1.748  0.00  0.00    +0.007 C 
ATOM     24  C   UNL     1      -2.688  -1.541   2.327  0.00  0.00    +0.004 C 
ENDBRANCH   5  23
TORSDOF 3
