REMARK  Name = 
REMARK  6 active torsions:
REMARK  status: ('A' for Active; 'I' for Inactive)
REMARK    1  A    between atoms: C_1  and  C_2
REMARK    2  A    between atoms: C_8  and  C_9
REMARK    3  A    between atoms: C_12  and  N_13
REMARK    4  A    between atoms: N_13  and  N_14
REMARK    5  A    between atoms: C_15  and  C_16
REMARK    6  A    between atoms: C_15  and  C_18
REMARK                            x       y       z     vdW  Elec       q    Type
REMARK                         _______ _______ _______ _____ _____    ______ ____
ROOT
ATOM      1  C   UNL     1      -0.237   0.279  -0.039  0.00  0.00    -0.002 A 
ATOM      2  C   UNL     1       0.146   0.074  -1.380  0.00  0.00    +0.011 A 
ATOM      3  C   UNL     1       1.485   0.190  -1.766  0.00  0.00    +0.025 A 
ATOM      4  C   UNL     1       2.474   0.503  -0.826  0.00  0.00    +0.048 A 
ATOM      5  C   UNL     1       2.100   0.727   0.508  0.00  0.00    +0.025 A 
ATOM      6  C   UNL     1       0.763   0.613   0.897  0.00  0.00    +0.011 A 
ENDROOT
BRANCH   1  14
ATOM      7  C   UNL     1      -3.354   0.619  -1.390  0.00  0.00    +0.014 C 
ATOM      8  C   UNL     1      -2.729  -0.460  -0.493  0.00  0.00    +0.046 C 
ATOM      9  C   UNL     1      -3.814  -1.175   0.339  0.00  0.00    +0.107 C 
ATOM     10  C   UNL     1      -4.255  -0.313   1.476  0.00  0.00    +0.233 C 
ATOM     11  O   UNL     1      -5.422  -0.405   1.941  0.00  0.00    -0.274 OA
ATOM     12  N   UNL     1      -3.307   0.573   2.071  0.00  0.00    -0.207 N 
ATOM     13  N   UNL     1      -2.002   0.662   1.558  0.00  0.00    -0.184 NA
ATOM     14  C   UNL     1      -1.660   0.159   0.403  0.00  0.00    +0.070 C 
ATOM     15  H   UNL     1      -3.556   1.103   2.936  0.00  0.00    +0.177 HD
ENDBRANCH   1  14
BRANCH   4  16
ATOM     16  N   UNL     1       3.842   0.625  -1.251  0.00  0.00    -0.236 N 
ATOM     17  H   UNL     1       4.031   0.882  -2.246  0.00  0.00    +0.174 HD
BRANCH  16  18
ATOM     18  N   UNL     1       4.928   0.626  -0.355  0.00  0.00    -0.160 NA
ATOM     19  C   UNL     1       5.184  -0.342   0.475  0.00  0.00    +0.234 C 
BRANCH  19  20
ATOM     20  C   UNL     1       6.307  -0.225   1.361  0.00  0.00    +0.132 C 
ATOM     21  N   UNL     1       7.213  -0.130   2.075  0.00  0.00    -0.188 NA
ENDBRANCH  19  20
BRANCH  19  22
ATOM     22  C   UNL     1       4.416  -1.563   0.487  0.00  0.00    +0.132 C 
ATOM     23  N   UNL     1       3.799  -2.542   0.496  0.00  0.00    -0.188 NA
ENDBRANCH  19  22
ENDBRANCH  16  18
ENDBRANCH   4  16
TORSDOF 5
