REMARK  Name = 
REMARK  7 active torsions:
REMARK  status: ('A' for Active; 'I' for Inactive)
REMARK    1  A    between atoms: C_1  and  C_2
REMARK    2  A    between atoms: C_2  and  N_3
REMARK    3  A    between atoms: C_2  and  C_4
REMARK    4  A    between atoms: C_4  and  O_5
REMARK    5  A    between atoms: C_4  and  C_6
REMARK    6  A    between atoms: C_8  and  O_9
REMARK    7  A    between atoms: C_10  and  O_11
REMARK                            x       y       z     vdW  Elec       q    Type
REMARK                         _______ _______ _______ _____ _____    ______ ____
ROOT
ATOM      1  C   UNL     1      -0.386  -0.427   0.053  0.00  0.00    -0.014 A 
ATOM      2  C   UNL     1      -1.144  -0.254   1.224  0.00  0.00    +0.055 A 
ATOM      3  C   UNL     1      -2.449   0.249   1.163  0.00  0.00    +0.159 A 
ATOM      4  C   UNL     1      -3.011   0.586  -0.080  0.00  0.00    +0.158 A 
ATOM      5  C   UNL     1      -2.259   0.418  -1.250  0.00  0.00    +0.049 A 
ATOM      6  C   UNL     1      -0.957  -0.084  -1.186  0.00  0.00    +0.010 A 
ENDROOT
BRANCH   3   7
ATOM      7  O   UNL     1      -3.171   0.406   2.346  0.00  0.00    -0.503 OA
ATOM      8  H   UNL     1      -4.118   0.765   2.355  0.00  0.00    +0.292 HD
ENDBRANCH   3   7
BRANCH   4   9
ATOM      9  O   UNL     1      -4.310   1.086  -0.148  0.00  0.00    -0.503 OA
ATOM     10  H   UNL     1      -4.737   1.337  -1.032  0.00  0.00    +0.292 HD
ENDBRANCH   4   9
BRANCH   1  11
ATOM     11  C   UNL     1       1.032  -0.965   0.136  0.00  0.00    +0.161 C 
BRANCH  11  13
ATOM     12  C   UNL     1       3.507  -0.464  -0.200  0.00  0.00    +0.026 C 
ATOM     13  C   UNL     1       2.077   0.083  -0.330  0.00  0.00    +0.081 C 
BRANCH  13  14
ATOM     14  N   UNL     1       1.929   1.319   0.444  0.00  0.00    -0.325 NA
ATOM     15  H   UNL     1       2.208   1.143   1.438  0.00  0.00    +0.119 HD
ATOM     16  H   UNL     1       2.583   2.039   0.058  0.00  0.00    +0.119 HD
ENDBRANCH  13  14
ENDBRANCH  11  13
BRANCH  11  17
ATOM     17  O   UNL     1       1.139  -2.166  -0.589  0.00  0.00    -0.386 OA
ATOM     18  H   UNL     1       1.101  -1.948  -1.556  0.00  0.00    +0.210 HD
ENDBRANCH  11  17
ENDBRANCH   1  11
TORSDOF 6
