REMARK  Name = 
REMARK  9 active torsions:
REMARK  status: ('A' for Active; 'I' for Inactive)
REMARK    1  A    between atoms: C_1  and  C_2
REMARK    2  A    between atoms: C_2  and  N_3
REMARK    3  A    between atoms: N_3  and  C_4
REMARK    4  A    between atoms: N_3  and  C_6
REMARK    5  A    between atoms: C_4  and  C_5
REMARK    6  A    between atoms: C_6  and  C_7
REMARK    7  A    between atoms: N_9  and  C_10
REMARK    8  A    between atoms: C_11  and  C_12
REMARK    9  A    between atoms: C_16  and  C_17
REMARK                            x       y       z     vdW  Elec       q    Type
REMARK                         _______ _______ _______ _____ _____    ______ ____
ROOT
ATOM      1  C   UNL     1       0.048  -0.216   0.897  0.00  0.00    +0.231 C 
ATOM      2  O   UNL     1      -0.335  -1.383   1.187  0.00  0.00    -0.274 OA
ATOM      3  N   UNL     1      -0.878   0.731   0.349  0.00  0.00    -0.284 N 
ATOM      4  H   UNL     1      -0.581   1.725   0.215  0.00  0.00    +0.155 HD
ENDROOT
BRANCH   3   5
ATOM      5  C   UNL     1      -2.256   0.398   0.139  0.00  0.00    +0.039 A 
ATOM      6  C   UNL     1      -2.640  -0.370  -0.983  0.00  0.00    -0.029 A 
ATOM      7  C   UNL     1      -1.621  -0.823  -1.993  0.00  0.00    +0.045 C 
ATOM      8  C   UNL     1      -3.989  -0.721  -1.151  0.00  0.00    +0.005 A 
ATOM      9  C   UNL     1      -4.949  -0.299  -0.230  0.00  0.00    +0.001 A 
ATOM     10  C   UNL     1      -4.576   0.480   0.866  0.00  0.00    +0.005 A 
ATOM     11  C   UNL     1      -3.233   0.840   1.058  0.00  0.00    -0.029 A 
ATOM     12  C   UNL     1      -2.841   1.662   2.255  0.00  0.00    +0.045 C 
ENDBRANCH   3   5
BRANCH   1  13
ATOM     13  C   UNL     1       1.481   0.163   1.119  0.00  0.00    +0.180 C 
BRANCH  13  14
ATOM     14  N   UNL     1       2.343  -0.535   0.142  0.00  0.00    -0.295 NA
BRANCH  14  16
ATOM     15  C   UNL     1       2.823  -0.781  -2.287  0.00  0.00    +0.020 C 
ATOM     16  C   UNL     1       2.348   0.150  -1.172  0.00  0.00    +0.081 C 
ENDBRANCH  14  16
BRANCH  14  17
ATOM     17  C   UNL     1       3.696  -0.815   0.683  0.00  0.00    +0.081 C 
ATOM     18  C   UNL     1       4.520   0.438   1.012  0.00  0.00    +0.020 C 
ENDBRANCH  14  17
ENDBRANCH  13  14
ENDBRANCH   1  13
TORSDOF 5
