REMARK  Name = 
REMARK  8 active torsions:
REMARK  status: ('A' for Active; 'I' for Inactive)
REMARK    1  A    between atoms: C_1  and  C_2
REMARK    2  A    between atoms: C_3  and  C_4
REMARK    3  A    between atoms: C_4  and  N_5
REMARK    4  A    between atoms: N_12  and  C_13
REMARK    5  A    between atoms: C_13  and  C_14
REMARK    6  A    between atoms: C_22  and  C_23
REMARK    7  A    between atoms: N_27  and  C_28
REMARK    8  A    between atoms: C_33  and  N_34
REMARK                            x       y       z     vdW  Elec       q    Type
REMARK                         _______ _______ _______ _____ _____    ______ ____
ROOT
ATOM      1  N   UNL     1      -1.709  -0.947   0.826  0.00  0.00    -0.295 N 
ATOM      2  C   UNL     1      -2.514  -1.208  -0.242  0.00  0.00    +0.202 A 
ATOM      3  N   UNL     1      -1.939  -2.012  -1.174  0.00  0.00    -0.196 NA
ATOM      4  C   UNL     1      -0.717  -2.238  -0.656  0.00  0.00    +0.170 A 
ATOM      5  C   UNL     1      -0.570  -1.604   0.532  0.00  0.00    +0.154 A 
ATOM      6  C   UNL     1       0.642  -1.661   1.210  0.00  0.00    +0.283 A 
ATOM      7  O   UNL     1       0.791  -1.059   2.309  0.00  0.00    -0.265 OA
ATOM      8  N   UNL     1       1.677  -2.371   0.643  0.00  0.00    -0.252 N 
ATOM      9  C   UNL     1       1.505  -2.993  -0.584  0.00  0.00    +0.334 A 
ATOM     10  O   UNL     1       2.477  -3.593  -1.125  0.00  0.00    -0.246 OA
ATOM     11  N   UNL     1       0.288  -2.953  -1.230  0.00  0.00    -0.279 N 
ATOM     12  C   UNL     1       0.104  -3.576  -2.548  0.00  0.00    +0.155 C 
ATOM     13  N   UNL     1      -3.833  -0.666  -0.412  0.00  0.00    -0.299 N 
ATOM     14  C   UNL     1      -4.895  -1.549  -0.908  0.00  0.00    +0.108 C 
ATOM     15  C   UNL     1      -6.273  -0.925  -0.662  0.00  0.00    +0.020 C 
ATOM     16  C   UNL     1      -6.404   0.478  -1.288  0.00  0.00    +0.021 C 
ATOM     17  C   UNL     1      -5.054   1.217  -1.445  0.00  0.00    +0.068 C 
ATOM     18  C   UNL     1      -4.043   0.789  -0.365  0.00  0.00    +0.126 C 
ENDROOT
BRANCH  17  19
ATOM     19  N   UNL     1      -5.266   2.666  -1.430  0.00  0.00    -0.326 NA
ATOM     20  H   UNL     1      -4.361   3.139  -1.664  0.00  0.00    +0.119 HD
ATOM     21  H   UNL     1      -5.533   2.970  -0.465  0.00  0.00    +0.119 HD
ENDBRANCH  17  19
BRANCH   1  22
ATOM     22  C   UNL     1      -2.008  -0.145   2.014  0.00  0.00    +0.214 C 
BRANCH  22  25
ATOM     23  C   UNL     1      -0.243   3.575   1.640  0.00  0.00    +0.106 C 
ATOM     24  C   UNL     1      -0.878   2.265   1.778  0.00  0.00    -0.104 C 
ATOM     25  C   UNL     1      -1.395   1.181   1.889  0.00  0.00    -0.081 C 
ENDBRANCH  22  25
ENDBRANCH   1  22
BRANCH   8  26
ATOM     26  C   UNL     1       2.997  -2.389   1.302  0.00  0.00    +0.206 C 
BRANCH  26  27
ATOM     27  C   UNL     1       3.807  -1.210   0.857  0.00  0.00    +0.150 A 
ATOM     28  N   UNL     1       3.485   0.035   1.295  0.00  0.00    -0.230 NA
ATOM     29  C   UNL     1       4.175   1.127   0.878  0.00  0.00    +0.075 A 
ATOM     30  C   UNL     1       5.250   0.980  -0.027  0.00  0.00    +0.021 A 
ATOM     31  C   UNL     1       5.956   2.126  -0.446  0.00  0.00    +0.012 A 
ATOM     32  C   UNL     1       5.590   3.389   0.030  0.00  0.00    +0.001 A 
ATOM     33  C   UNL     1       4.522   3.524   0.921  0.00  0.00    +0.002 A 
ATOM     34  C   UNL     1       3.814   2.396   1.345  0.00  0.00    +0.028 A 
ATOM     35  C   UNL     1       5.564  -0.324  -0.474  0.00  0.00    +0.049 A 
ATOM     36  C   UNL     1       6.682  -0.594  -1.437  0.00  0.00    +0.066 C 
ATOM     37  N   UNL     1       4.829  -1.376  -0.022  0.00  0.00    -0.235 NA
ENDBRANCH  26  27
ENDBRANCH   8  26
TORSDOF 5
