REMARK  Name = 
REMARK  21 active torsions:
REMARK  status: ('A' for Active; 'I' for Inactive)
REMARK    1  A    between atoms: CA_1  and  C_87
REMARK    2  A    between atoms: CA_10  and  CB_11
REMARK    3  A    between atoms: CB_11  and  CG_12
REMARK    4  A    between atoms: CZ_15  and  OH_16
REMARK    5  A    between atoms: CA_22  and  CB_23
REMARK    6  A    between atoms: CB_23  and  CG_24
REMARK    7  A    between atoms: CG_24  and  CD_25
REMARK    8  A    between atoms: CD_25  and  OE1_26
REMARK    9  A    between atoms: CA_40  and  CB_41
REMARK   10  A    between atoms: CA_52  and  CB_53
REMARK   11  A    between atoms: CB_53  and  CG_54
REMARK   12  A    between atoms: CA_65  and  N_66
REMARK   13  A    between atoms: CA_76  and  CB_77
REMARK   14  A    between atoms: CB_77  and  CG2_78
REMARK   15  A    between atoms: CB_77  and  OG1_79
REMARK   16  A    between atoms: N_89  and  CA_90
REMARK   17  A    between atoms: CA_90  and  CB_91
REMARK   18  A    between atoms: CA_90  and  C_99
REMARK   19  A    between atoms: CB_91  and  CG_92
REMARK   20  A    between atoms: CZ_95  and  OH_96
REMARK   21  A    between atoms: C_99  and  O_100
REMARK                            x       y       z     vdW  Elec       q    Type
REMARK                         _______ _______ _______ _____ _____    ______ ____
ROOT
ATOM      1  CA  CYS A  13       4.527  -0.222  -0.206  0.00  0.00    +0.169 C 
ATOM      2  CB  CYS A  13       3.261   0.408   0.409  0.00  0.00    +0.112 C 
ATOM      3  SG  CYS A  13       3.225   0.327   2.245  0.00  0.00    -0.091 S 
ATOM      4  SG  CYS A   5       3.332   2.453   2.505  0.00  0.00    -0.091 S 
ATOM      5  CB  CYS A   5       1.649   2.636   3.183  0.00  0.00    +0.112 C 
ATOM      6  CA  CYS A   5       0.543   2.331   2.160  0.00  0.00    +0.169 C 
ATOM      7  N   CYS A   5       0.627   3.210   0.985  0.00  0.00    -0.302 N 
ATOM      8  C   TYR A   4       0.190   4.577   0.969  0.00  0.00    +0.234 C 
ATOM      9  O   TYR A   4      -0.088   5.154   2.050  0.00  0.00    -0.274 OA
ATOM     10  CA  TYR A   4       0.163   5.339  -0.346  0.00  0.00    +0.163 C 
ATOM     11  N   TYR A   4      -0.139   4.423  -1.456  0.00  0.00    -0.302 N 
ATOM     12  C   GLU A   3      -1.364   3.671  -1.530  0.00  0.00    +0.234 C 
ATOM     13  O   GLU A   3      -2.091   3.536  -0.500  0.00  0.00    -0.274 OA
ATOM     14  CA  GLU A   3      -1.876   3.203  -2.873  0.00  0.00    +0.159 C 
ATOM     15  N   GLU A   3      -2.619   1.945  -2.740  0.00  0.00    -0.302 N 
ATOM     16  C   CYS A   2      -2.996   1.178  -3.896  0.00  0.00    +0.235 C 
ATOM     17  O   CYS A   2      -2.574   1.516  -5.035  0.00  0.00    -0.274 OA
ATOM     18  CA  CYS A   2      -3.860  -0.059  -3.744  0.00  0.00    +0.169 C 
ATOM     19  CB  CYS A   2      -4.402  -0.596  -5.086  0.00  0.00    +0.112 C 
ATOM     20  SG  CYS A   2      -3.079  -1.304  -6.138  0.00  0.00    -0.091 S 
ATOM     21  SG  CYS A  10      -3.009  -3.179  -5.121  0.00  0.00    -0.091 S 
ATOM     22  CB  CYS A  10      -1.322  -2.935  -4.468  0.00  0.00    +0.112 C 
ATOM     23  CA  CYS A  10      -1.072  -3.942  -3.343  0.00  0.00    +0.169 C 
ATOM     24  N   CYS A  10      -1.866  -3.588  -2.165  0.00  0.00    -0.302 N 
ATOM     25  C   ALA A   9      -2.220  -4.582  -1.194  0.00  0.00    +0.234 C 
ATOM     26  O   ALA A   9      -2.622  -5.713  -1.577  0.00  0.00    -0.274 OA
ATOM     27  CA  ALA A   9      -2.092  -4.273   0.268  0.00  0.00    +0.156 C 
ATOM     28  CB  ALA A   9      -1.221  -5.313   0.985  0.00  0.00    +0.038 C 
ATOM     29  N   ALA A   9      -3.406  -4.111   0.894  0.00  0.00    -0.303 N 
ATOM     30  C   PRO A   8      -4.252  -5.188   1.331  0.00  0.00    +0.234 C 
ATOM     31  O   PRO A   8      -4.139  -6.333   0.815  0.00  0.00    -0.274 OA
ATOM     32  CA  PRO A   8      -5.328  -4.958   2.369  0.00  0.00    +0.162 C 
ATOM     33  CB  PRO A   8      -6.655  -4.562   1.716  0.00  0.00    +0.033 C 
ATOM     34  CG  PRO A   8      -7.291  -3.571   2.681  0.00  0.00    +0.021 C 
ATOM     35  CD  PRO A   8      -6.136  -2.951   3.449  0.00  0.00    +0.109 C 
ATOM     36  N   PRO A   8      -5.004  -3.853   3.277  0.00  0.00    -0.288 N 
ATOM     37  C   ASN A   7      -3.765  -3.775   4.024  0.00  0.00    +0.237 C 
ATOM     38  O   ASN A   7      -3.013  -4.785   4.061  0.00  0.00    -0.274 OA
ATOM     39  CA  ASN A   7      -3.278  -2.492   4.666  0.00  0.00    +0.168 C 
ATOM     40  N   ASN A   7      -3.291  -1.388   3.700  0.00  0.00    -0.302 N 
ATOM     41  C   CYS A   6      -2.640  -0.143   3.951  0.00  0.00    +0.235 C 
ATOM     42  O   CYS A   6      -1.683  -0.087   4.773  0.00  0.00    -0.274 OA
ATOM     43  CA  CYS A   6      -2.985   1.122   3.184  0.00  0.00    +0.169 C 
ATOM     44  CB  CYS A   6      -4.304   1.069   2.381  0.00  0.00    +0.112 C 
ATOM     45  SG  CYS A   6      -4.161   0.204   0.776  0.00  0.00    -0.091 S 
ATOM     46  SG  CYS A   1      -6.267   0.198   0.430  0.00  0.00    -0.091 S 
ATOM     47  CB  CYS A   1      -6.302   1.779  -0.500  0.00  0.00    +0.109 C 
ATOM     48  CA  CYS A   1      -6.915   1.660  -1.919  0.00  0.00    +0.148 C 
ATOM     49  C   CYS A   1      -5.897   1.317  -2.981  0.00  0.00    +0.231 C 
ATOM     50  O   CYS A   1      -5.873   2.003  -4.038  0.00  0.00    -0.274 OA
ATOM     51  N   CYS A   2      -4.974   0.219  -2.828  0.00  0.00    -0.302 N 
ATOM     52  N   CYS A   6      -1.852   1.491   2.329  0.00  0.00    -0.302 N 
ATOM     53  C   CYS A   5      -0.818   2.373   2.795  0.00  0.00    +0.235 C 
ATOM     54  O   CYS A   5      -1.064   3.200   3.718  0.00  0.00    -0.274 OA
ATOM     55  C   CYS A  10       0.387  -4.003  -2.966  0.00  0.00    +0.235 C 
ATOM     56  O   CYS A  10       0.841  -3.247  -2.063  0.00  0.00    -0.274 OA
ATOM     57  N   THR A  11       1.254  -4.937  -3.627  0.00  0.00    -0.300 N 
ATOM     58  CA  THR A  11       2.312  -5.638  -2.894  0.00  0.00    +0.187 C 
ATOM     59  C   THR A  11       3.437  -4.691  -2.578  0.00  0.00    +0.236 C 
ATOM     60  O   THR A  11       3.967  -4.023  -3.510  0.00  0.00    -0.274 OA
ATOM     61  N   GLY A  12       3.932  -4.574  -1.234  0.00  0.00    -0.305 N 
ATOM     62  CA  GLY A  12       5.240  -3.990  -0.934  0.00  0.00    +0.200 C 
ATOM     63  C   GLY A  12       5.202  -2.498  -1.085  0.00  0.00    +0.231 C 
ATOM     64  O   GLY A  12       5.789  -1.961  -2.069  0.00  0.00    -0.274 OA
ATOM     65  N   CYS A  13       4.464  -1.689  -0.154  0.00  0.00    -0.302 N 
ATOM     66  H   CYS A   5       1.063   2.810   0.128  0.00  0.00    +0.150 HD
ATOM     67  H   TYR A   4       0.543   4.357  -2.242  0.00  0.00    +0.150 HD
ATOM     68  H   GLU A   3      -2.902   1.585  -1.802  0.00  0.00    +0.150 HD
ATOM     69  H   CYS A  10      -1.863  -2.587  -1.849  0.00  0.00    +0.150 HD
ATOM     70  H   ALA A   9      -3.704  -3.139   1.112  0.00  0.00    +0.149 HD
ATOM     71  H   ASN A   7      -3.713  -1.548   2.760  0.00  0.00    +0.150 HD
ATOM     72  H   CYS A   2      -5.057  -0.388  -1.990  0.00  0.00    +0.150 HD
ATOM     73  H   CYS A   6      -1.598   0.836   1.556  0.00  0.00    +0.150 HD
ATOM     74  H   THR A  11       0.980  -5.265  -4.581  0.00  0.00    +0.150 HD
ATOM     75  H   GLY A  12       3.426  -5.070  -0.467  0.00  0.00    +0.149 HD
ATOM     76  H   CYS A  13       4.003  -2.154   0.660  0.00  0.00    +0.150 HD
ENDROOT
BRANCH   1  77
ATOM     77  C   CYS A  13       5.804   0.260   0.438  0.00  0.00    +0.235 C 
ATOM     78  O   CYS A  13       6.068  -0.064   1.628  0.00  0.00    -0.274 OA
ATOM     79  N   TYR A  14       6.758   1.023  -0.320  0.00  0.00    -0.301 N 
ATOM     80  H   TYR A  14       6.507   1.307  -1.290  0.00  0.00    +0.150 HD
BRANCH  79  81
ATOM     81  CA  TYR A  14       8.160   1.121   0.105  0.00  0.00    +0.186 C 
BRANCH  81  82
ATOM     82  C   TYR A  14       8.850   2.228  -0.643  0.00  0.00    +0.326 C 
ATOM     83  OXT TYR A  14       8.998   2.146  -1.895  0.00  0.00    -0.249 OA
BRANCH  82  84
ATOM     84  O   TYR A  14       9.336   3.336   0.041  0.00  0.00    -0.479 OA
ATOM     85  H   TYR A  14       9.841   4.068  -0.458  0.00  0.00    +0.295 HD
ENDBRANCH  82  84
ENDBRANCH  81  82
BRANCH  81  86
ATOM     86  CB  TYR A  14       8.867  -0.232  -0.103  0.00  0.00    +0.069 C 
BRANCH  86  87
ATOM     87  CG  TYR A  14      10.304  -0.224   0.346  0.00  0.00    -0.045 A 
ATOM     88  CD1 TYR A  14      10.621  -0.104   1.711  0.00  0.00    +0.007 A 
ATOM     89  CE1 TYR A  14      11.955  -0.147   2.130  0.00  0.00    +0.045 A 
ATOM     90  CZ  TYR A  14      12.980  -0.322   1.194  0.00  0.00    +0.117 A 
ATOM     91  CE2 TYR A  14      12.674  -0.427  -0.169  0.00  0.00    +0.045 A 
ATOM     92  CD2 TYR A  14      11.343  -0.379  -0.593  0.00  0.00    +0.007 A 
BRANCH  90  93
ATOM     93  OH  TYR A  14      14.296  -0.408   1.630  0.00  0.00    -0.507 OA
ATOM     94  HH  TYR A  14      15.056  -0.577   0.977  0.00  0.00    +0.292 HD
ENDBRANCH  90  93
ENDBRANCH  86  87
ENDBRANCH  81  86
ENDBRANCH  79  81
ENDBRANCH   1  77
BRANCH  48  95
ATOM     95  N   CYS A   1      -8.052   0.732  -1.953  0.00  0.00    -0.319 NA
ATOM     96  H1  CYS A   1      -7.702  -0.252  -1.938  0.00  0.00    +0.119 HD
ATOM     97  H2  CYS A   1      -8.548   0.861  -2.865  0.00  0.00    +0.119 HD
ENDBRANCH  48  95
BRANCH  58  98
ATOM     98  CB  THR A  11       2.816  -6.860  -3.709  0.00  0.00    +0.141 C 
ATOM     99  CG2 THR A  11       3.905  -7.657  -2.974  0.00  0.00    +0.040 C 
BRANCH  98 100
ATOM    100  OG1 THR A  11       1.740  -7.703  -4.039  0.00  0.00    -0.390 OA
ATOM    101  HG1 THR A  11       1.390  -8.092  -3.195  0.00  0.00    +0.210 HD
ENDBRANCH  98 100
ENDBRANCH  58  98
BRANCH  10 102
ATOM    102  CB  TYR A   4      -0.797   6.567  -0.446  0.00  0.00    +0.067 C 
BRANCH 102 103
ATOM    103  CG  TYR A   4      -0.907   7.411   0.801  0.00  0.00    -0.045 A 
ATOM    104  CD1 TYR A   4      -2.124   7.471   1.500  0.00  0.00    +0.007 A 
ATOM    105  CE1 TYR A   4      -2.207   8.186   2.700  0.00  0.00    +0.045 A 
ATOM    106  CZ  TYR A   4      -1.082   8.827   3.222  0.00  0.00    +0.117 A 
ATOM    107  CE2 TYR A   4       0.135   8.780   2.511  0.00  0.00    +0.045 A 
ATOM    108  CD2 TYR A   4       0.221   8.075   1.305  0.00  0.00    +0.007 A 
BRANCH 106 109
ATOM    109  OH  TYR A   4      -1.174   9.503   4.435  0.00  0.00    -0.507 OA
ATOM    110  HH  TYR A   4      -0.374   9.961   4.853  0.00  0.00    +0.292 HD
ENDBRANCH 106 109
ENDBRANCH 102 103
ENDBRANCH  10 102
BRANCH  14 111
ATOM    111  CB  GLU A   3      -2.778   4.307  -3.485  0.00  0.00    +0.043 C 
BRANCH 111 112
ATOM    112  CG  GLU A   3      -2.086   5.041  -4.641  0.00  0.00    +0.123 C 
BRANCH 112 113
ATOM    113  CD  GLU A   3      -2.591   6.446  -4.753  0.00  0.00    +0.305 C 
ATOM    114  OE2 GLU A   3      -3.624   6.709  -5.437  0.00  0.00    -0.251 OA
BRANCH 113 115
ATOM    115  OE1 GLU A   3      -1.941   7.464  -4.053  0.00  0.00    -0.481 OA
ATOM    116  HE1 GLU A   3      -2.309   8.406  -4.063  0.00  0.00    +0.295 HD
ENDBRANCH 113 115
ENDBRANCH 112 113
ENDBRANCH 111 112
ENDBRANCH  14 111
BRANCH  39 117
ATOM    117  CB  ASN A   7      -4.109  -2.143   5.920  0.00  0.00    +0.127 C 
BRANCH 117 118
ATOM    118  CG  ASN A   7      -3.285  -1.450   6.971  0.00  0.00    +0.213 C 
ATOM    119  ND2 ASN A   7      -3.497  -0.071   7.275  0.00  0.00    -0.329 N 
ATOM    120  OD1 ASN A   7      -2.411  -2.096   7.610  0.00  0.00    -0.276 OA
ATOM    121 HD21 ASN A   7      -2.970   0.379   8.055  0.00  0.00    +0.145 HD
ATOM    122 HD22 ASN A   7      -4.170   0.503   6.724  0.00  0.00    +0.145 HD
ENDBRANCH 117 118
ENDBRANCH  39 117
TORSDOF 19
