REMARK  Name = 
REMARK  15 active torsions:
REMARK  status: ('A' for Active; 'I' for Inactive)
REMARK    1  A    between atoms: C_1  and  S_26
REMARK    2  A    between atoms: C_3  and  C_4
REMARK    3  A    between atoms: C_4  and  N_5
REMARK    4  A    between atoms: C_4  and  C_17
REMARK    5  A    between atoms: C_6  and  C_8
REMARK    6  A    between atoms: C_10  and  C_11
REMARK    7  A    between atoms: C_11  and  C_12
REMARK    8  A    between atoms: C_12  and  C_13
REMARK    9  A    between atoms: N_15  and  C_16
REMARK   10  A    between atoms: C_17  and  C_18
REMARK   11  A    between atoms: C_17  and  O_19
REMARK   12  A    between atoms: C_20  and  O_21
REMARK   13  A    between atoms: C_22  and  O_23
REMARK   14  A    between atoms: C_24  and  O_25
REMARK   15  A    between atoms: S_26  and  C_27
REMARK                            x       y       z     vdW  Elec       q    Type
REMARK                         _______ _______ _______ _____ _____    ______ ____
ROOT
ATOM      1  C   UNL     1      -1.444  -1.031   1.579  0.00  0.00    +0.132 C 
ENDROOT
BRANCH   1   4
ATOM      2  C   UNL     1      -3.260   0.971  -0.954  0.00  0.00    +0.207 C 
ATOM      3  O   UNL     1      -2.709  -0.172  -0.316  0.00  0.00    -0.356 OA
ATOM      4  C   UNL     1      -2.397   0.076   1.044  0.00  0.00    +0.173 C 
ATOM      5  C   UNL     1      -3.696   0.273   1.893  0.00  0.00    +0.176 C 
ATOM      6  C   UNL     1      -4.878   0.737   1.012  0.00  0.00    +0.177 C 
ATOM      7  C   UNL     1      -4.392   1.660  -0.125  0.00  0.00    +0.184 C 
BRANCH   5   8
ATOM      8  O   UNL     1      -4.069  -0.897   2.582  0.00  0.00    -0.387 OA
ATOM      9  H   UNL     1      -3.703  -0.834   3.501  0.00  0.00    +0.210 HD
ENDBRANCH   5   8
BRANCH   6  10
ATOM     10  O   UNL     1      -5.524  -0.386   0.460  0.00  0.00    -0.386 OA
ATOM     11  H   UNL     1      -6.424  -0.086   0.165  0.00  0.00    +0.210 HD
ENDBRANCH   6  10
BRANCH   7  12
ATOM     12  O   UNL     1      -4.022   2.925   0.375  0.00  0.00    -0.386 OA
ATOM     13  H   UNL     1      -3.254   2.813   0.989  0.00  0.00    +0.210 HD
ENDBRANCH   7  12
BRANCH   2  14
ATOM     14  S   UNL     1      -1.915   2.106  -1.491  0.00  0.00    -0.131 S 
ATOM     15  C   UNL     1      -2.894   2.980  -2.756  0.00  0.00    +0.087 C 
ENDBRANCH   2  14
ENDBRANCH   1   4
BRANCH   1  16
ATOM     16  N   UNL     1      -0.073  -0.752   1.132  0.00  0.00    -0.306 N 
ATOM     17  C   UNL     1       1.082  -1.000   1.948  0.00  0.00    +0.231 C 
ATOM     18  O   UNL     1       0.951  -1.325   3.158  0.00  0.00    -0.274 OA
ATOM     19  H   UNL     1       0.076  -0.460   0.139  0.00  0.00    +0.149 HD
BRANCH  17  20
ATOM     20  C   UNL     1       2.463  -0.869   1.365  0.00  0.00    +0.143 C 
ATOM     21  C   UNL     1       2.803   0.589   1.037  0.00  0.00    +0.033 C 
ATOM     22  C   UNL     1       3.378   0.565  -0.382  0.00  0.00    +0.005 C 
ATOM     23  C   UNL     1       3.554  -0.917  -0.695  0.00  0.00    +0.088 C 
ATOM     24  N   UNL     1       2.556  -1.623   0.109  0.00  0.00    -0.294 NA
ATOM     25  C   UNL     1       2.931  -3.029   0.328  0.00  0.00    +0.105 C 
BRANCH  22  26
ATOM     26  C   UNL     1       4.688   1.376  -0.492  0.00  0.00    +0.004 C 
BRANCH  26  27
ATOM     27  C   UNL     1       5.285   1.400  -1.909  0.00  0.00    -0.003 C 
ATOM     28  C   UNL     1       4.469   2.247  -2.884  0.00  0.00    +0.004 C 
ENDBRANCH  26  27
ENDBRANCH  22  26
ENDBRANCH  17  20
ENDBRANCH   1  16
BRANCH   1  29
ATOM     29  C   UNL     1      -1.875  -2.480   1.178  0.00  0.00    +0.134 C 
ATOM     30  C   UNL     1      -1.300  -2.967  -0.165  0.00  0.00    +0.039 C 
BRANCH  29  31
ATOM     31  O   UNL     1      -1.536  -3.390   2.196  0.00  0.00    -0.390 OA
ATOM     32  H   UNL     1      -0.547  -3.404   2.270  0.00  0.00    +0.210 HD
ENDBRANCH  29  31
ENDBRANCH   1  29
TORSDOF 11
