REMARK  Name = 
REMARK  0 active torsions:
REMARK  status: ('A' for Active; 'I' for Inactive)
REMARK                            x       y       z     vdW  Elec       q    Type
REMARK                         _______ _______ _______ _____ _____    ______ ____
ROOT
ATOM      1 CL   UNL     1       2.918   1.228   0.062  0.00  0.00    -0.119 Cl
ATOM      2  C   UNL     1       1.296   0.593  -0.363  0.00  0.00    +0.119 C 
ATOM      3  C   UNL     1       1.143  -0.880   0.069  0.00  0.00    +0.119 C 
ATOM      4 CL   UNL     1       2.409  -1.872  -0.724  0.00  0.00    -0.119 Cl
ATOM      5  C   UNL     1      -0.250  -1.412  -0.324  0.00  0.00    +0.119 C 
ATOM      6 CL   UNL     1      -0.445  -3.132   0.147  0.00  0.00    -0.119 Cl
ATOM      7  C   UNL     1      -1.388  -0.557   0.277  0.00  0.00    +0.119 C 
ATOM      8 CL   UNL     1      -1.554  -0.805   2.046  0.00  0.00    -0.119 Cl
ATOM      9  C   UNL     1      -1.226   0.944  -0.058  0.00  0.00    +0.119 C 
ATOM     10 CL   UNL     1      -1.645   1.234  -1.776  0.00  0.00    -0.119 Cl
ATOM     11  C   UNL     1       0.191   1.490   0.237  0.00  0.00    +0.119 C 
ATOM     12 CL   UNL     1       0.422   1.757   1.997  0.00  0.00    -0.119 Cl
ENDROOT
TORSDOF 0
