REMARK  Name = 
REMARK  5 active torsions:
REMARK  status: ('A' for Active; 'I' for Inactive)
REMARK    1  A    between atoms: C_1  and  C_2
REMARK    2  A    between atoms: N_4  and  C_5
REMARK    3  A    between atoms: C_5  and  C_6
REMARK    4  A    between atoms: N_8  and  C_12
REMARK    5  A    between atoms: C_16  and  N_19
REMARK                            x       y       z     vdW  Elec       q    Type
REMARK                         _______ _______ _______ _____ _____    ______ ____
ROOT
ATOM      1  C   UNL     1       0.061   0.374  -0.220  0.00  0.00    +0.042 A 
ATOM      2  C   UNL     1       0.730   1.553   0.154  0.00  0.00    +0.063 A 
ATOM      3  C   UNL     1       2.125   1.631   0.096  0.00  0.00    +0.146 A 
ATOM      4  F   UNL     1       2.734   2.793   0.440  0.00  0.00    -0.203 F 
ATOM      5  C   UNL     1       2.878   0.524  -0.333  0.00  0.00    +0.066 A 
ATOM      6  C   UNL     1       2.214  -0.656  -0.695  0.00  0.00    +0.028 A 
ATOM      7  C   UNL     1       0.820  -0.733  -0.634  0.00  0.00    +0.025 A 
ENDROOT
BRANCH   1  10
ATOM      8  C   UNL     1      -3.616  -0.460   0.274  0.00  0.00    +0.213 C 
ATOM      9  C   UNL     1      -2.138  -0.928   0.138  0.00  0.00    +0.163 C 
ATOM     10  N   UNL     1      -1.376   0.283  -0.152  0.00  0.00    -0.234 N 
ATOM     11  C   UNL     1      -2.314   1.335  -0.293  0.00  0.00    +0.408 C 
ATOM     12  O   UNL     1      -2.019   2.504  -0.654  0.00  0.00    -0.226 OA
ATOM     13  O   UNL     1      -3.605   0.924  -0.062  0.00  0.00    -0.444 OA
BRANCH   8  14
ATOM     14  C   UNL     1      -4.558  -1.226  -0.664  0.00  0.00    +0.150 C 
BRANCH  14  18
ATOM     15  C   UNL     1      -8.144  -0.522   0.687  0.00  0.00    +0.109 C 
ATOM     16  C   UNL     1      -6.753  -1.059   0.604  0.00  0.00    +0.210 C 
ATOM     17  O   UNL     1      -6.325  -1.823   1.511  0.00  0.00    -0.276 OA
ATOM     18  N   UNL     1      -5.929  -0.740  -0.526  0.00  0.00    -0.312 N 
ATOM     19  H   UNL     1      -6.340  -0.180  -1.308  0.00  0.00    +0.149 HD
ENDBRANCH  14  18
ENDBRANCH   8  14
ENDBRANCH   1  10
BRANCH   5  20
ATOM     20  N   UNL     1       4.316   0.581  -0.393  0.00  0.00    -0.323 N 
ATOM     21  C   UNL     1       5.094   1.114   0.728  0.00  0.00    +0.133 C 
ATOM     22  C   UNL     1       6.438   0.384   0.807  0.00  0.00    +0.178 C 
ATOM     23  O   UNL     1       7.104   0.420  -0.442  0.00  0.00    -0.377 OA
ATOM     24  C   UNL     1       6.361  -0.304  -1.405  0.00  0.00    +0.178 C 
ATOM     25  C   UNL     1       5.008   0.366  -1.666  0.00  0.00    +0.133 C 
ENDBRANCH   5  20
TORSDOF 4
