REMARK  Name = 
REMARK  8 active torsions:
REMARK  status: ('A' for Active; 'I' for Inactive)
REMARK    1  A    between atoms: N_1  and  CA_2
REMARK    2  A    between atoms: CA_2  and  C_3
REMARK    3  A    between atoms: CA_2  and  C_21
REMARK    4  A    between atoms: C_3  and  C_4
REMARK    5  A    between atoms: C_8  and  O_9
REMARK    6  A    between atoms: O_9  and  C_10
REMARK    7  A    between atoms: C_14  and  O_15
REMARK    8  A    between atoms: C_21  and  O_22
REMARK                            x       y       z     vdW  Elec       q    Type
REMARK                         _______ _______ _______ _____ _____    ______ ____
ROOT
ATOM      1  C   UNL     1       0.595   0.722   2.929  0.00  0.00    -0.043 A 
ATOM      2  C   UNL     1      -0.592   0.857   3.642  0.00  0.00    +0.021 A 
ATOM      3  C   UNL     1      -1.139   2.111   3.941  0.00  0.00    +0.057 A 
ATOM      4  I   UNL     1      -3.190   1.866   4.490  0.00  0.00    -0.040 I 
ATOM      5  C   UNL     1      -0.405   3.284   3.683  0.00  0.00    +0.155 A 
ATOM      6  C   UNL     1       0.804   3.134   2.953  0.00  0.00    +0.057 A 
ATOM      7  I   UNL     1       1.945   4.777   2.266  0.00  0.00    -0.040 I 
ATOM      8  C   UNL     1       1.287   1.873   2.566  0.00  0.00    +0.021 A 
ENDROOT
BRANCH   1   9
ATOM      9  C   UNL     1       0.985  -0.647   2.428  0.00  0.00    +0.065 C 
BRANCH   9  10
ATOM     10  CA  UNL     1       0.435  -0.987   1.022  0.00  0.00    +0.165 C 
BRANCH  10  11
ATOM     11  N   UNL     1       0.951  -0.068  -0.015  0.00  0.00    -0.318 NA
ATOM     12  H1  UNL     1       0.571   0.864   0.188  0.00  0.00    +0.119 HD
ATOM     13  H2  UNL     1       1.962   0.027   0.077  0.00  0.00    +0.119 HD
ENDBRANCH  10  11
BRANCH  10  14
ATOM     14  C   UNL     1      -1.112  -0.976   0.987  0.00  0.00    +0.322 C 
ATOM     15  OXT UNL     1      -1.802   0.026   1.161  0.00  0.00    -0.249 OA
BRANCH  14  16
ATOM     16  O   UNL     1      -1.689  -2.172   0.739  0.00  0.00    -0.480 OA
ATOM     17  H   UNL     1      -1.080  -2.884   0.477  0.00  0.00    +0.295 HD
ENDBRANCH  14  16
ENDBRANCH  10  14
ENDBRANCH   9  10
ENDBRANCH   1   9
BRANCH   5  18
ATOM     18  O   UNL     1      -0.721   4.588   4.016  0.00  0.00    -0.454 OA
BRANCH  18  19
ATOM     19  C   UNL     1      -1.744   4.866   4.883  0.00  0.00    +0.130 A 
ATOM     20  C   UNL     1      -2.780   5.659   4.385  0.00  0.00    +0.064 A 
ATOM     21  C   UNL     1      -3.932   5.853   5.152  0.00  0.00    +0.058 A 
ATOM     22  I   UNL     1      -5.504   6.941   4.305  0.00  0.00    -0.040 I 
ATOM     23  C   UNL     1      -4.035   5.274   6.422  0.00  0.00    +0.130 A 
ATOM     24  C   UNL     1      -2.970   4.532   6.941  0.00  0.00    +0.050 A 
ATOM     25  C   UNL     1      -1.801   4.363   6.186  0.00  0.00    +0.050 A 
BRANCH  23  26
ATOM     26  O   UNL     1      -5.190   5.411   7.141  0.00  0.00    -0.506 OA
ATOM     27  H   UNL     1      -5.104   4.964   7.998  0.00  0.00    +0.292 HD
ENDBRANCH  23  26
ENDBRANCH  18  19
ENDBRANCH   5  18
TORSDOF 8
