REMARK  Name = 
REMARK  14 active torsions:
REMARK  status: ('A' for Active; 'I' for Inactive)
REMARK    1  A    between atoms: N_3  and  CA_4
REMARK    2  A    between atoms: CA_4  and  C_5
REMARK    3  A    between atoms: CA_4  and  C_23
REMARK    4  A    between atoms: C_5  and  C_6
REMARK    5  A    between atoms: C_10  and  O_11
REMARK    6  A    between atoms: O_11  and  C_12
REMARK    7  A    between atoms: C_16  and  O_17
REMARK    8  A    between atoms: N_26  and  CA_27
REMARK    9  A    between atoms: CA_27  and  C_28
REMARK   10  A    between atoms: CA_27  and  C_47
REMARK   11  A    between atoms: C_28  and  C_29
REMARK   12  A    between atoms: C_33  and  O_34
REMARK   13  A    between atoms: O_34  and  C_35
REMARK   14  A    between atoms: C_39  and  O_40
REMARK                            x       y       z     vdW  Elec       q    Type
REMARK                         _______ _______ _______ _____ _____    ______ ____
ROOT
ATOM      1 NA   UNL     1       2.995  -1.206   0.674  0.00  0.00    +0.000 Na
ENDROOT
TORSDOF 0
REMARK  Name = 
REMARK  14 active torsions:
REMARK  status: ('A' for Active; 'I' for Inactive)
REMARK    1  A    between atoms: N_3  and  CA_4
REMARK    2  A    between atoms: CA_4  and  C_5
REMARK    3  A    between atoms: CA_4  and  C_23
REMARK    4  A    between atoms: C_5  and  C_6
REMARK    5  A    between atoms: C_10  and  O_11
REMARK    6  A    between atoms: O_11  and  C_12
REMARK    7  A    between atoms: C_16  and  O_17
REMARK    8  A    between atoms: N_26  and  CA_27
REMARK    9  A    between atoms: CA_27  and  C_28
REMARK   10  A    between atoms: CA_27  and  C_47
REMARK   11  A    between atoms: C_28  and  C_29
REMARK   12  A    between atoms: C_33  and  O_34
REMARK   13  A    between atoms: O_34  and  C_35
REMARK   14  A    between atoms: C_39  and  O_40
REMARK                            x       y       z     vdW  Elec       q    Type
REMARK                         _______ _______ _______ _____ _____    ______ ____
ROOT
ATOM      1 NA   UNL     1      -1.971   0.153  -1.169  0.00  0.00    +0.000 Na
ENDROOT
TORSDOF 0
REMARK  Name = 
REMARK  14 active torsions:
REMARK  status: ('A' for Active; 'I' for Inactive)
REMARK    1  A    between atoms: N_3  and  CA_4
REMARK    2  A    between atoms: CA_4  and  C_5
REMARK    3  A    between atoms: CA_4  and  C_23
REMARK    4  A    between atoms: C_5  and  C_6
REMARK    5  A    between atoms: C_10  and  O_11
REMARK    6  A    between atoms: O_11  and  C_12
REMARK    7  A    between atoms: C_16  and  O_17
REMARK    8  A    between atoms: N_26  and  CA_27
REMARK    9  A    between atoms: CA_27  and  C_28
REMARK   10  A    between atoms: CA_27  and  C_47
REMARK   11  A    between atoms: C_28  and  C_29
REMARK   12  A    between atoms: C_33  and  O_34
REMARK   13  A    between atoms: O_34  and  C_35
REMARK   14  A    between atoms: C_39  and  O_40
REMARK                            x       y       z     vdW  Elec       q    Type
REMARK                         _______ _______ _______ _____ _____    ______ ____
ROOT
ATOM      1  C   UNL     1       0.390   3.296   0.516  0.00  0.00    +0.000 A 
ATOM      2  C   UNL     1      -0.041   2.878  -0.727  0.00  0.00    +0.000 A 
ATOM      3  C   UNL     1      -0.171   3.718  -1.749  0.00  0.00    +0.000 A 
ATOM      4  I   UNL     1      -0.375   2.504  -3.510  0.00  0.00    +0.000 I 
ATOM      5  C   UNL     1      -0.051   5.066  -1.400  0.00  0.00    +0.000 A 
ATOM      6  C   UNL     1       0.348   5.488  -0.101  0.00  0.00    +0.000 A 
ATOM      7  I   UNL     1       0.940   7.397   0.450  0.00  0.00    +0.000 I 
ATOM      8  C   UNL     1       0.491   4.588   0.896  0.00  0.00    +0.000 A 
ENDROOT
BRANCH   1   9
ATOM      9  C   UNL     1       0.827   2.338   1.500  0.00  0.00    +0.000 C 
BRANCH   9  10
ATOM     10  CA  UNL     1       0.662   0.995   0.984  0.00  0.00    +0.000 C 
BRANCH  10  11
ATOM     11  N   UNL     1       1.683   0.759  -0.188  0.00  0.00    +0.000 NA
ATOM     12  H1  UNL     1       1.442   1.276  -1.040  0.00  0.00    +0.000 HD
ATOM     13  H2  UNL     1       2.553   1.236   0.074  0.00  0.00    +0.000 HD
ENDBRANCH  10  11
BRANCH  10  14
ATOM     14  C   UNL     1      -0.976   0.832   1.205  0.00  0.00    +0.000 C 
ATOM     15  O   UNL     1      -1.304   0.008   2.128  0.00  0.00    +0.000 OA
ATOM     16  OXT UNL     1      -1.765   1.481   0.500  0.00  0.00    +0.000 OA
ENDBRANCH  10  14
ENDBRANCH   9  10
ENDBRANCH   1   9
BRANCH   5  17
ATOM     17  O   UNL     1      -0.403   6.108  -2.191  0.00  0.00    +0.000 OA
BRANCH  17  18
ATOM     18  C   UNL     1      -1.101   5.781  -3.302  0.00  0.00    +0.000 A 
ATOM     19  C   UNL     1      -0.395   6.040  -4.462  0.00  0.00    +0.000 A 
ATOM     20  C   UNL     1      -0.962   5.692  -5.668  0.00  0.00    +0.000 A 
ATOM     21  I   UNL     1       0.126   6.152  -7.374  0.00  0.00    +0.000 I 
ATOM     22  C   UNL     1      -2.208   5.050  -5.690  0.00  0.00    +0.000 A 
ATOM     23  C   UNL     1      -2.889   4.736  -4.505  0.00  0.00    +0.000 A 
ATOM     24  C   UNL     1      -2.344   5.131  -3.287  0.00  0.00    +0.000 A 
BRANCH  22  25
ATOM     25  O   UNL     1      -2.750   4.697  -6.892  0.00  0.00    +0.000 OA
ATOM     26  H   UNL     1      -3.639   4.337  -6.746  0.00  0.00    +0.000 HD
ENDBRANCH  22  25
ENDBRANCH  17  18
ENDBRANCH   5  17
TORSDOF 7
REMARK  Name = 
REMARK  14 active torsions:
REMARK  status: ('A' for Active; 'I' for Inactive)
REMARK    1  A    between atoms: N_3  and  CA_4
REMARK    2  A    between atoms: CA_4  and  C_5
REMARK    3  A    between atoms: CA_4  and  C_23
REMARK    4  A    between atoms: C_5  and  C_6
REMARK    5  A    between atoms: C_10  and  O_11
REMARK    6  A    between atoms: O_11  and  C_12
REMARK    7  A    between atoms: C_16  and  O_17
REMARK    8  A    between atoms: N_26  and  CA_27
REMARK    9  A    between atoms: CA_27  and  C_28
REMARK   10  A    between atoms: CA_27  and  C_47
REMARK   11  A    between atoms: C_28  and  C_29
REMARK   12  A    between atoms: C_33  and  O_34
REMARK   13  A    between atoms: O_34  and  C_35
REMARK   14  A    between atoms: C_39  and  O_40
REMARK                            x       y       z     vdW  Elec       q    Type
REMARK                         _______ _______ _______ _____ _____    ______ ____
ROOT
ATOM      1  C   UNL     1       0.958  -0.330   3.575  0.00  0.00    +0.000 A 
ATOM      2  C   UNL     1      -0.190  -0.166   4.352  0.00  0.00    +0.000 A 
ATOM      3  C   UNL     1      -0.649   1.113   4.775  0.00  0.00    +0.000 A 
ATOM      4  I   UNL     1      -2.758   0.968   5.280  0.00  0.00    +0.000 I 
ATOM      5  C   UNL     1       0.155   2.275   4.674  0.00  0.00    +0.000 A 
ATOM      6  C   UNL     1       1.481   2.058   4.214  0.00  0.00    +0.000 A 
ATOM      7  I   UNL     1       2.865   3.818   3.897  0.00  0.00    +0.000 I 
ATOM      8  C   UNL     1       1.871   0.781   3.627  0.00  0.00    +0.000 A 
ENDROOT
BRANCH   1   9
ATOM      9  C   UNL     1       0.928  -1.592   2.476  0.00  0.00    +0.000 C 
BRANCH   9  10
ATOM     10  CA  UNL     1       0.244  -1.886   0.826  0.00  0.00    +0.000 C 
BRANCH  10  11
ATOM     11  N   UNL     1       0.671  -1.320  -0.538  0.00  0.00    +0.000 NA
ATOM     12  H1  UNL     1       0.378  -0.342  -0.567  0.00  0.00    +0.000 HD
ATOM     13  H2  UNL     1       1.620  -1.198  -0.838  0.00  0.00    +0.000 HD
ENDBRANCH  10  11
BRANCH  10  14
ATOM     14  C   UNL     1      -1.331  -2.254   0.459  0.00  0.00    +0.000 C 
ATOM     15  O   UNL     1      -1.494  -3.467   0.141  0.00  0.00    +0.000 OA
ATOM     16  OXT UNL     1      -2.076  -1.302   0.075  0.00  0.00    +0.000 OA
ENDBRANCH  10  14
ENDBRANCH   9  10
ENDBRANCH   1   9
BRANCH   5  17
ATOM     17  O   UNL     1      -0.313   3.587   4.809  0.00  0.00    +0.000 OA
BRANCH  17  18
ATOM     18  C   UNL     1      -1.158   3.836   5.875  0.00  0.00    +0.000 A 
ATOM     19  C   UNL     1      -0.915   3.179   7.084  0.00  0.00    +0.000 A 
ATOM     20  C   UNL     1      -1.888   3.158   8.075  0.00  0.00    +0.000 A 
ATOM     21  I   UNL     1      -1.627   1.799   9.642  0.00  0.00    +0.000 I 
ATOM     22  C   UNL     1      -3.059   3.903   7.924  0.00  0.00    +0.000 A 
ATOM     23  C   UNL     1      -3.267   4.639   6.746  0.00  0.00    +0.000 A 
ATOM     24  I   UNL     1      -5.041   5.724   6.461  0.00  0.00    +0.000 I 
ATOM     25  C   UNL     1      -2.319   4.607   5.707  0.00  0.00    +0.000 A 
BRANCH  22  26
ATOM     26  O   UNL     1      -4.014   3.895   8.906  0.00  0.00    +0.000 OA
ATOM     27  H   UNL     1      -3.703   3.312   9.622  0.00  0.00    +0.000 HD
ENDBRANCH  22  26
ENDBRANCH  17  18
ENDBRANCH   5  17
TORSDOF 7
