REMARK  Name = 
REMARK  6 active torsions:
REMARK  status: ('A' for Active; 'I' for Inactive)
REMARK    1  A    between atoms: O_1  and  C_2
REMARK    2  A    between atoms: C_2  and  C_4
REMARK    3  A    between atoms: C_4  and  C_5
REMARK    4  A    between atoms: C_5  and  C_6
REMARK    5  A    between atoms: C_6  and  C_7
REMARK    6  A    between atoms: C_7  and  C_8
REMARK                            x       y       z     vdW  Elec       q    Type
REMARK                         _______ _______ _______ _____ _____    ______ ____
ROOT
ATOM      1  C   UNL     1       0.410   0.991   0.969  0.00  0.00    +0.002 C 
ENDROOT
BRANCH   1   2
ATOM      2  C   UNL     1       1.261   0.195  -0.030  0.00  0.00    +0.011 C 
BRANCH   2   3
ATOM      3  C   UNL     1       2.307   1.093  -0.698  0.00  0.00    +0.120 C 
BRANCH   3   4
ATOM      4  C   UNL     1       3.115   0.310  -1.683  0.00  0.00    +0.305 C 
ATOM      5  O   UNL     1       2.742   0.231  -2.884  0.00  0.00    -0.251 OA
BRANCH   4   6
ATOM      6  O   UNL     1       4.255  -0.367  -1.262  0.00  0.00    -0.481 OA
ATOM      7  H   UNL     1       4.804  -0.915  -1.914  0.00  0.00    +0.295 HD
ENDBRANCH   4   6
ENDBRANCH   3   4
ENDBRANCH   2   3
ENDBRANCH   1   2
BRANCH   1   8
ATOM      8  C   UNL     1      -0.510   0.109   1.839  0.00  0.00    +0.015 C 
BRANCH   8   9
ATOM      9  C   UNL     1      -1.605  -0.708   1.113  0.00  0.00    +0.058 C 
ATOM     10  C   UNL     1      -2.403   0.079   0.077  0.00  0.00    +0.026 C 
ATOM     11  C   UNL     1      -3.319  -0.895  -0.635  0.00  0.00    +0.082 C 
ATOM     12  S   UNL     1      -2.307  -2.251  -1.286  0.00  0.00    -0.093 S 
ATOM     13  S   UNL     1      -0.951  -2.243   0.372  0.00  0.00    -0.090 S 
ENDBRANCH   8   9
ENDBRANCH   1   8
TORSDOF 6
