REMARK  Name = 
REMARK  11 active torsions:
REMARK  status: ('A' for Active; 'I' for Inactive)
REMARK    1  A    between atoms: C_1  and  C_2
REMARK    2  A    between atoms: C_2  and  C_3
REMARK    3  A    between atoms: C_2  and  N_10
REMARK    4  A    between atoms: C_3  and  C_4
REMARK    5  A    between atoms: C_11  and  C_13
REMARK    6  A    between atoms: C_13  and  N_14
REMARK    7  A    between atoms: C_13  and  C_15
REMARK    8  A    between atoms: C_15  and  C_16
REMARK    9  A    between atoms: C_16  and  C_17
REMARK   10  A    between atoms: C_17  and  C_18
REMARK   11  A    between atoms: C_18  and  N_19
REMARK                            x       y       z     vdW  Elec       q    Type
REMARK                         _______ _______ _______ _____ _____    ______ ____
ROOT
ATOM      1  N   UNL     1       0.474  -0.400  -0.613  0.00  0.00    -0.311 N 
ATOM      2  C   UNL     1      -0.320   0.145   0.454  0.00  0.00    +0.230 C 
ATOM      3  O   UNL     1       0.188   0.319   1.595  0.00  0.00    -0.274 OA
ATOM      4  H   UNL     1       0.019  -0.579  -1.536  0.00  0.00    +0.149 HD
ENDROOT
BRANCH   1   6
ATOM      5  C   UNL     1       2.329  -1.733  -1.519  0.00  0.00    +0.028 C 
ATOM      6  C   UNL     1       1.893  -0.731  -0.440  0.00  0.00    +0.074 C 
BRANCH   6   7
ATOM      7  C   UNL     1       2.736   0.559  -0.494  0.00  0.00    +0.057 C 
BRANCH   7   8
ATOM      8  C   UNL     1       4.173   0.312  -0.110  0.00  0.00    -0.046 A 
ATOM      9  C   UNL     1       4.526   0.164   1.242  0.00  0.00    +0.004 A 
ATOM     10  C   UNL     1       5.855  -0.087   1.599  0.00  0.00    +0.000 A 
ATOM     11  C   UNL     1       6.837  -0.195   0.611  0.00  0.00    +0.000 A 
ATOM     12  C   UNL     1       6.493  -0.055  -0.736  0.00  0.00    +0.000 A 
ATOM     13  C   UNL     1       5.165   0.196  -1.098  0.00  0.00    +0.004 A 
ENDBRANCH   7   8
ENDBRANCH   6   7
ENDBRANCH   1   6
BRANCH   2  14
ATOM     14  C   UNL     1      -1.770   0.491   0.234  0.00  0.00    +0.138 C 
BRANCH  14  15
ATOM     15  N   UNL     1      -1.883   1.420  -0.895  0.00  0.00    -0.320 NA
ATOM     16  H   UNL     1      -1.870   0.892  -1.798  0.00  0.00    +0.119 HD
ATOM     17  H   UNL     1      -2.799   1.919  -0.834  0.00  0.00    +0.119 HD
ENDBRANCH  14  15
BRANCH  14  18
ATOM     18  C   UNL     1      -2.599  -0.799   0.024  0.00  0.00    +0.028 C 
BRANCH  18  19
ATOM     19  C   UNL     1      -4.106  -0.567  -0.192  0.00  0.00    +0.003 C 
BRANCH  19  20
ATOM     20  C   UNL     1      -4.808   0.005   1.051  0.00  0.00    +0.015 C 
BRANCH  20  21
ATOM     21  C   UNL     1      -6.324   0.178   0.846  0.00  0.00    +0.077 C 
BRANCH  21  22
ATOM     22  N   UNL     1      -7.035  -1.099   0.804  0.00  0.00    -0.330 NA
ATOM     23  H   UNL     1      -6.730  -1.697   1.607  0.00  0.00    +0.118 HD
ATOM     24  H   UNL     1      -6.802  -1.598  -0.084  0.00  0.00    +0.118 HD
ENDBRANCH  21  22
ENDBRANCH  20  21
ENDBRANCH  19  20
ENDBRANCH  18  19
ENDBRANCH  14  18
ENDBRANCH   2  14
TORSDOF 10
