REMARK  Name = 
REMARK  15 active torsions:
REMARK  status: ('A' for Active; 'I' for Inactive)
REMARK    1  A    between atoms: N_1  and  C_2
REMARK    2  A    between atoms: C_2  and  C_3
REMARK    3  A    between atoms: C_3  and  C_4
REMARK    4  A    between atoms: C_4  and  C_5
REMARK    5  A    between atoms: C_5  and  C_6
REMARK    6  A    between atoms: C_6  and  N_7
REMARK    7  A    between atoms: C_6  and  C_20
REMARK    8  A    between atoms: N_7  and  C_8
REMARK    9  A    between atoms: C_8  and  C_9
REMARK   10  A    between atoms: C_8  and  C_17
REMARK   11  A    between atoms: C_9  and  C_10
REMARK   12  A    between atoms: C_10  and  C_11
REMARK   13  A    between atoms: C_17  and  O_18
REMARK   14  A    between atoms: CA_26  and  C_27
REMARK   15  A    between atoms: C_27  and  O_28
REMARK                            x       y       z     vdW  Elec       q    Type
REMARK                         _______ _______ _______ _____ _____    ______ ____
ROOT
ATOM      1  C   UNK A   1      -1.008  -0.100   0.156  0.00  0.00    +0.141 C 
ENDROOT
BRANCH   1   2
ATOM      2  C   UNK A   1      -1.327  -1.581   0.061  0.00  0.00    +0.233 C 
ATOM      3  O   UNK A   1      -0.666  -2.303  -0.734  0.00  0.00    -0.274 OA
ATOM      4  N   PRO A   2      -2.420  -2.164   0.799  0.00  0.00    -0.287 N 
ATOM      5  CD  PRO A   2      -3.220  -1.451   1.783  0.00  0.00    +0.109 C 
ATOM      6  CG  PRO A   2      -4.304  -2.427   2.224  0.00  0.00    +0.021 C 
ATOM      7  CB  PRO A   2      -3.825  -3.808   1.786  0.00  0.00    +0.035 C 
ATOM      8  CA  PRO A   2      -2.807  -3.563   0.671  0.00  0.00    +0.184 C 
BRANCH   8   9
ATOM      9  C   PRO A   2      -3.404  -3.829  -0.687  0.00  0.00    +0.325 C 
ATOM     10  OXT PRO A   2      -3.113  -4.892  -1.296  0.00  0.00    -0.249 OA
BRANCH   9  11
ATOM     11  O   PRO A   2      -4.299  -2.935  -1.272  0.00  0.00    -0.479 OA
ATOM     12  H   PRO A   2      -4.573  -2.078  -0.808  0.00  0.00    +0.295 HD
ENDBRANCH   9  11
ENDBRANCH   8   9
ENDBRANCH   1   2
BRANCH   1  13
ATOM     13  N   UNK A   1       0.446   0.159   0.086  0.00  0.00    -0.294 NA
ATOM     14  H   UNK A   1       0.843  -0.321  -0.756  0.00  0.00    +0.123 HD
BRANCH  13  15
ATOM     15  C   UNK A   1       1.168  -0.275   1.300  0.00  0.00    +0.164 C 
BRANCH  15  16
ATOM     16  C   UNK A   1       0.850   0.621   2.474  0.00  0.00    +0.322 C 
ATOM     17  O   UNK A   1       0.796   0.129   3.632  0.00  0.00    -0.249 OA
BRANCH  16  18
ATOM     18  O   UNK A   1       0.646   1.989   2.309  0.00  0.00    -0.480 OA
ATOM     19  H   UNK A   1       0.702   2.428   1.398  0.00  0.00    +0.295 HD
ENDBRANCH  16  18
ENDBRANCH  15  16
BRANCH  15  20
ATOM     20  C   UNK A   1       2.692  -0.321   1.050  0.00  0.00    +0.035 C 
BRANCH  20  21
ATOM     21  C   UNK A   1       3.286   1.027   0.607  0.00  0.00    +0.037 C 
BRANCH  21  22
ATOM     22  C   UNK A   1       4.742   0.872   0.258  0.00  0.00    -0.047 A 
ATOM     23  C   UNK A   1       5.123   0.527  -1.050  0.00  0.00    +0.003 A 
ATOM     24  C   UNK A   1       6.474   0.351  -1.367  0.00  0.00    +0.000 A 
ATOM     25  C   UNK A   1       7.451   0.507  -0.380  0.00  0.00    +0.000 A 
ATOM     26  C   UNK A   1       7.078   0.836   0.927  0.00  0.00    +0.000 A 
ATOM     27  C   UNK A   1       5.729   1.013   1.248  0.00  0.00    +0.003 A 
ENDBRANCH  21  22
ENDBRANCH  20  21
ENDBRANCH  15  20
ENDBRANCH  13  15
ENDBRANCH   1  13
BRANCH   1  28
ATOM     28  C   UNK A   1      -1.727   0.645  -0.982  0.00  0.00    +0.028 C 
BRANCH  28  29
ATOM     29  C   UNK A   1      -1.568   2.170  -0.857  0.00  0.00    +0.003 C 
BRANCH  29  30
ATOM     30  C   UNK A   1      -2.417   2.938  -1.881  0.00  0.00    +0.015 C 
BRANCH  30  31
ATOM     31  C   UNK A   1      -1.868   2.818  -3.313  0.00  0.00    +0.077 C 
BRANCH  31  32
ATOM     32  N   UNK A   1      -2.629   3.649  -4.243  0.00  0.00    -0.330 NA
ATOM     33  H   UNK A   1      -3.631   3.348  -4.222  0.00  0.00    +0.118 HD
ATOM     34  H   UNK A   1      -2.587   4.644  -3.924  0.00  0.00    +0.118 HD
ENDBRANCH  31  32
ENDBRANCH  30  31
ENDBRANCH  29  30
ENDBRANCH  28  29
ENDBRANCH   1  28
TORSDOF 15
