REMARK  Name = 
REMARK  6 active torsions:
REMARK  status: ('A' for Active; 'I' for Inactive)
REMARK    1  A    between atoms: C_14  and  N_18
REMARK    2  A    between atoms: N_16  and  C_17
REMARK    3  A    between atoms: N_21  and  C_22
REMARK    4  A    between atoms: N_21  and  C_24
REMARK    5  A    between atoms: C_22  and  C_23
REMARK    6  A    between atoms: C_24  and  C_25
REMARK                            x       y       z     vdW  Elec       q    Type
REMARK                         _______ _______ _______ _____ _____    ______ ____
ROOT
ATOM      1  C   UNL     1      -2.190  -0.571   1.140  0.00  0.00    +0.091 C 
ATOM      2  C   UNL     1      -3.276  -1.488   0.481  0.00  0.00    +0.061 C 
ATOM      3  C   UNL     1      -4.294  -0.651  -0.227  0.00  0.00    -0.020 A 
ATOM      4  C   UNL     1      -5.552  -0.968  -0.730  0.00  0.00    +0.087 A 
ATOM      5  N   UNL     1      -6.000   0.042  -1.524  0.00  0.00    -0.360 N 
ATOM      6  C   UNL     1      -5.017   0.962  -1.540  0.00  0.00    +0.047 A 
ATOM      7  C   UNL     1      -4.942   2.151  -2.264  0.00  0.00    +0.026 A 
ATOM      8  C   UNL     1      -3.751   2.903  -2.160  0.00  0.00    +0.003 A 
ATOM      9  C   UNL     1      -2.672   2.449  -1.358  0.00  0.00    +0.009 A 
ATOM     10  C   UNL     1      -2.780   1.227  -0.645  0.00  0.00    -0.011 A 
ATOM     11  C   UNL     1      -3.978   0.551  -0.769  0.00  0.00    +0.010 A 
ATOM     12  C   UNL     1      -1.752   0.611   0.253  0.00  0.00    -0.024 C 
ATOM     13  C   UNL     1      -0.535   1.158   0.412  0.00  0.00    +0.002 C 
ATOM     14  C   UNL     1       0.484   0.640   1.395  0.00  0.00    +0.112 C 
ATOM     15  C   UNL     1      -0.076  -0.452   2.335  0.00  0.00    +0.111 C 
ATOM     16  N   UNL     1      -1.040  -1.349   1.665  0.00  0.00    -0.296 NA
ATOM     17  C   UNL     1      -0.384  -2.215   0.665  0.00  0.00    +0.105 C 
ATOM     18  H   UNL     1      -6.900   0.070  -2.054  0.00  0.00    +0.165 HD
ENDROOT
BRANCH  14  19
ATOM     19  N   UNL     1       1.672   0.159   0.677  0.00  0.00    -0.292 N 
ATOM     20  C   UNL     1       2.985   0.208   1.267  0.00  0.00    +0.303 C 
ATOM     21  O   UNL     1       3.103   0.566   2.472  0.00  0.00    -0.253 OA
ATOM     22  N   UNL     1       4.173  -0.116   0.504  0.00  0.00    -0.286 N 
ATOM     23  H   UNL     1       1.553  -0.163  -0.308  0.00  0.00    +0.151 HD
BRANCH  22  24
ATOM     24  C   UNL     1       5.492   0.274   1.031  0.00  0.00    +0.106 C 
ATOM     25  C   UNL     1       5.733   1.764   0.808  0.00  0.00    +0.024 C 
ENDBRANCH  22  24
BRANCH  22  26
ATOM     26  C   UNL     1       4.105  -0.816  -0.787  0.00  0.00    +0.106 C 
ATOM     27  C   UNL     1       3.724  -2.280  -0.588  0.00  0.00    +0.024 C 
ENDBRANCH  22  26
ENDBRANCH  14  19
TORSDOF 3
