REMARK  Name = 
REMARK  4 active torsions:
REMARK  status: ('A' for Active; 'I' for Inactive)
REMARK    1  A    between atoms: C_1  and  C_2
REMARK    2  A    between atoms: C_2  and  O_3
REMARK    3  A    between atoms: C_2  and  C_12
REMARK    4  A    between atoms: O_3  and  C_4
REMARK                            x       y       z     vdW  Elec       q    Type
REMARK                         _______ _______ _______ _____ _____    ______ ____
ROOT
ATOM      1  O   UNL     1       0.483  -0.919   1.281  0.00  0.00    -0.479 OA
ENDROOT
BRANCH   1   2
ATOM      2  C   UNL     1       1.563  -0.226   0.720  0.00  0.00    +0.158 A 
ATOM      3  C   UNL     1       1.663   1.164   0.903  0.00  0.00    +0.084 A 
ATOM      4 CL   UNL     1       0.464   2.034   1.848  0.00  0.00    -0.080 Cl
ATOM      5  C   UNL     1       2.724   1.873   0.331  0.00  0.00    +0.024 A 
ATOM      6  C   UNL     1       3.698   1.201  -0.411  0.00  0.00    +0.003 A 
ATOM      7  C   UNL     1       3.623  -0.184  -0.571  0.00  0.00    +0.024 A 
ATOM      8  C   UNL     1       2.565  -0.904  -0.004  0.00  0.00    +0.084 A 
ATOM      9 CL   UNL     1       2.564  -2.656  -0.146  0.00  0.00    -0.080 Cl
ENDBRANCH   1   2
BRANCH   1  11
ATOM     10  C   UNL     1      -1.355  -2.478   1.341  0.00  0.00    +0.060 C 
ATOM     11  C   UNL     1      -0.553  -1.499   0.487  0.00  0.00    +0.233 C 
BRANCH  11  12
ATOM     12  C   UNL     1      -1.442  -0.419  -0.062  0.00  0.00    +0.131 C 
ATOM     13  N   UNL     1      -1.475  -0.121  -1.314  0.00  0.00    -0.268 NA
ATOM     14  C   UNL     1      -2.381   1.000  -1.528  0.00  0.00    +0.162 C 
ATOM     15  C   UNL     1      -2.889   1.379  -0.128  0.00  0.00    +0.126 C 
ATOM     16  N   UNL     1      -2.251   0.415   0.744  0.00  0.00    -0.328 N 
ATOM     17  H   UNL     1      -2.331   0.383   1.784  0.00  0.00    +0.147 HD
ENDBRANCH  11  12
ENDBRANCH   1  11
TORSDOF 3
