REMARK  Name = 
REMARK  6 active torsions:
REMARK  status: ('A' for Active; 'I' for Inactive)
REMARK    1  A    between atoms: C_1  and  C_2
REMARK    2  A    between atoms: C_2  and  N_3
REMARK    3  A    between atoms: C_5  and  C_6
REMARK    4  A    between atoms: C_6  and  O_7
REMARK    5  A    between atoms: C_15  and  N_16
REMARK    6  A    between atoms: C_20  and  C_21
REMARK                            x       y       z     vdW  Elec       q    Type
REMARK                         _______ _______ _______ _____ _____    ______ ____
ROOT
ATOM      1  N   UNL     1      -2.855  -0.617  -0.249  0.00  0.00    -0.344 N 
ATOM      2  C   UNL     1      -4.051   0.052  -0.245  0.00  0.00    +0.105 A 
ATOM      3  C   UNL     1      -4.133   1.432  -0.465  0.00  0.00    +0.122 A 
ATOM      4  C   UNL     1      -2.946   2.145  -0.690  0.00  0.00    +0.204 A 
ATOM      5  O   UNL     1      -2.987   3.387  -0.913  0.00  0.00    -0.286 OA
ATOM      6  C   UNL     1      -1.708   1.478  -0.662  0.00  0.00    +0.052 A 
ATOM      7  C   UNL     1      -0.516   2.197  -0.870  0.00  0.00    +0.054 A 
ATOM      8  C   UNL     1       0.717   1.561  -0.821  0.00  0.00    +0.148 A 
ATOM      9  F   UNL     1       1.850   2.277  -1.031  0.00  0.00    -0.203 F 
ATOM     10  C   UNL     1       0.790   0.196  -0.551  0.00  0.00    +0.103 A 
ATOM     11  C   UNL     1      -0.381  -0.545  -0.333  0.00  0.00    +0.171 A 
ATOM     12  F   UNL     1      -0.218  -1.846   0.010  0.00  0.00    -0.201 F 
ATOM     13  C   UNL     1      -1.664   0.076  -0.411  0.00  0.00    +0.090 A 
ENDROOT
BRANCH  10  14
ATOM     14  N   UNL     1       2.073  -0.440  -0.475  0.00  0.00    -0.323 N 
ATOM     15  C   UNL     1       2.487  -1.347  -1.550  0.00  0.00    +0.120 C 
ATOM     16  C   UNL     1       3.953  -1.758  -1.377  0.00  0.00    +0.100 C 
ATOM     17  N   UNL     1       4.745  -0.614  -0.914  0.00  0.00    -0.311 NA
ATOM     18  C   UNL     1       4.384  -0.230   0.468  0.00  0.00    +0.068 C 
ATOM     19  C   UNL     1       4.912   1.178   0.775  0.00  0.00    +0.025 C 
ATOM     20  C   UNL     1       2.859  -0.335   0.759  0.00  0.00    +0.123 C 
ATOM     21  H   UNL     1       4.576   0.189  -1.566  0.00  0.00    +0.122 HD
ENDBRANCH  10  14
BRANCH   1  23
ATOM     22  C   UNL     1      -2.801  -2.454   1.408  0.00  0.00    +0.027 C 
ATOM     23  C   UNL     1      -2.936  -2.082  -0.067  0.00  0.00    +0.118 C 
ENDBRANCH   1  23
BRANCH   3  24
ATOM     24  C   UNL     1      -5.465   2.099  -0.461  0.00  0.00    +0.342 C 
ATOM     25  O   UNL     1      -6.514   1.423  -0.277  0.00  0.00    -0.245 OA
BRANCH  24  26
ATOM     26  O   UNL     1      -5.579   3.473  -0.658  0.00  0.00    -0.477 OA
ATOM     27  H   UNL     1      -6.485   3.927  -0.655  0.00  0.00    +0.295 HD
ENDBRANCH  24  26
ENDBRANCH   3  24
TORSDOF 4
