REMARK  Name = 
REMARK  4 active torsions:
REMARK  status: ('A' for Active; 'I' for Inactive)
REMARK    1  A    between atoms: C_2  and  C_3
REMARK    2  A    between atoms: C_3  and  N_4
REMARK    3  A    between atoms: N_4  and  N_5
REMARK    4  A    between atoms: N_9  and  C_10
REMARK                            x       y       z     vdW  Elec       q    Type
REMARK                         _______ _______ _______ _____ _____    ______ ____
ROOT
ATOM      1  N   UNL     1       2.485   0.250  -0.178  0.00  0.00    -0.140 N 
ATOM      2  C   UNL     1       1.244   0.448   0.528  0.00  0.00    +0.324 C 
ATOM      3  O   UNL     1       1.224   0.382   1.788  0.00  0.00    -0.251 OA
ATOM      4  N   UNL     1       0.039   0.761  -0.187  0.00  0.00    -0.295 N 
ATOM      5  H   UNL     1       0.130   1.089  -1.175  0.00  0.00    +0.151 HD
ENDROOT
BRANCH   4   6
ATOM      6  C   UNL     1      -1.278   0.775   0.464  0.00  0.00    +0.074 C 
ATOM      7  C   UNL     1      -1.725  -0.655   0.830  0.00  0.00    +0.022 C 
ATOM      8  C   UNL     1      -2.054  -1.485  -0.417  0.00  0.00    +0.002 C 
ATOM      9  C   UNL     1      -3.131  -0.796  -1.262  0.00  0.00    +0.000 C 
ATOM     10  C   UNL     1      -2.694   0.617  -1.663  0.00  0.00    +0.002 C 
ATOM     11  C   UNL     1      -2.335   1.460  -0.430  0.00  0.00    +0.022 C 
ENDBRANCH   4   6
BRANCH   1  12
ATOM     12  N   UNL     1       2.513  -0.307  -1.470  0.00  0.00    +0.053 NA
ATOM     13  O   UNL     1       1.513  -0.863  -1.970  0.00  0.00    -0.126 OA
ENDBRANCH   1  12
BRANCH   1  14
ATOM     14  C   UNL     1       3.762   0.610   0.444  0.00  0.00    +0.155 C 
BRANCH  14  16
ATOM     15 CL   UNL     1       3.760  -1.612   2.044  0.00  0.00    -0.124 Cl
ATOM     16  C   UNL     1       4.575  -0.637   0.794  0.00  0.00    +0.130 C 
ENDBRANCH  14  16
ENDBRANCH   1  14
TORSDOF 4
