REMARK  Name = 
REMARK  10 active torsions:
REMARK  status: ('A' for Active; 'I' for Inactive)
REMARK    1  A    between atoms: C_1  and  N_2
REMARK    2  A    between atoms: N_2  and  C_3
REMARK    3  A    between atoms: C_4  and  C_6
REMARK    4  A    between atoms: C_6  and  C_7
REMARK    5  A    between atoms: C_6  and  C_23
REMARK    6  A    between atoms: C_6  and  C_29
REMARK    7  A    between atoms: C_7  and  C_8
REMARK    8  A    between atoms: C_8  and  N_9
REMARK    9  A    between atoms: C_12  and  O_13
REMARK   10  A    between atoms: C_12  and  C_16
REMARK                            x       y       z     vdW  Elec       q    Type
REMARK                         _______ _______ _______ _____ _____    ______ ____
ROOT
ATOM      1  C   UNL     1      -1.991   0.113  -0.242  0.00  0.00    +0.098 C 
ENDROOT
BRANCH   1   2
ATOM      2  C   UNL     1      -2.845  -0.949   0.499  0.00  0.00    -0.028 A 
ATOM      3  C   UNL     1      -2.941  -2.269  -0.005  0.00  0.00    +0.005 A 
ATOM      4  C   UNL     1      -3.651  -3.255   0.684  0.00  0.00    +0.000 A 
ATOM      5  C   UNL     1      -4.235  -2.966   1.916  0.00  0.00    +0.000 A 
ATOM      6  C   UNL     1      -4.080  -1.700   2.478  0.00  0.00    +0.000 A 
ATOM      7  C   UNL     1      -3.369  -0.710   1.794  0.00  0.00    +0.005 A 
ENDBRANCH   1   2
BRANCH   1   8
ATOM      8  C   UNL     1      -2.371   1.578   0.104  0.00  0.00    -0.028 A 
ATOM      9  C   UNL     1      -1.415   2.623   0.032  0.00  0.00    +0.005 A 
ATOM     10  C   UNL     1      -1.776   3.951   0.283  0.00  0.00    +0.000 A 
ATOM     11  C   UNL     1      -3.099   4.276   0.577  0.00  0.00    +0.000 A 
ATOM     12  C   UNL     1      -4.070   3.277   0.597  0.00  0.00    +0.000 A 
ATOM     13  C   UNL     1      -3.717   1.948   0.344  0.00  0.00    +0.005 A 
ENDBRANCH   1   8
BRANCH   1  17
ATOM     14  C   UNL     1      -4.638  -0.119  -2.130  0.00  0.00    +0.131 C 
ATOM     15  N   UNL     1      -3.281  -0.588  -2.416  0.00  0.00    -0.307 N 
ATOM     16  C   UNL     1      -3.061  -1.447  -3.578  0.00  0.00    +0.131 C 
ATOM     17  C   UNL     1      -2.136   0.009  -1.770  0.00  0.00    +0.230 C 
ATOM     18  O   UNL     1      -1.230   0.498  -2.501  0.00  0.00    -0.274 OA
ENDBRANCH   1  17
BRANCH   1  19
ATOM     19  C   UNL     1      -0.499  -0.222   0.126  0.00  0.00    +0.041 C 
BRANCH  19  20
ATOM     20  C   UNL     1      -0.154  -0.042   1.632  0.00  0.00    +0.086 C 
BRANCH  20  21
ATOM     21  N   UNL     1       1.288  -0.174   1.940  0.00  0.00    -0.302 NA
ATOM     22  C   UNL     1       2.096   0.994   1.518  0.00  0.00    +0.087 C 
ATOM     23  C   UNL     1       3.596   0.748   1.737  0.00  0.00    +0.055 C 
ATOM     24  C   UNL     1       4.125  -0.538   1.022  0.00  0.00    +0.093 C 
ATOM     25  C   UNL     1       2.942  -1.433   0.543  0.00  0.00    +0.055 C 
ATOM     26  C   UNL     1       1.862  -1.508   1.627  0.00  0.00    +0.087 C 
BRANCH  24  27
ATOM     27  C   UNL     1       5.021  -0.143  -0.167  0.00  0.00    -0.016 A 
ATOM     28  C   UNL     1       6.413  -0.397  -0.155  0.00  0.00    +0.008 A 
ATOM     29  C   UNL     1       7.220  -0.005  -1.229  0.00  0.00    +0.020 A 
ATOM     30  C   UNL     1       6.660   0.646  -2.330  0.00  0.00    +0.041 A 
ATOM     31 CL   UNL     1       7.678   1.138  -3.671  0.00  0.00    -0.084 Cl
ATOM     32  C   UNL     1       5.293   0.926  -2.350  0.00  0.00    +0.020 A 
ATOM     33  C   UNL     1       4.479   0.539  -1.279  0.00  0.00    +0.008 A 
ENDBRANCH  24  27
BRANCH  24  34
ATOM     34  O   UNL     1       4.871  -1.264   1.980  0.00  0.00    -0.384 OA
ATOM     35  H   UNL     1       5.133  -2.138   1.585  0.00  0.00    +0.211 HD
ENDBRANCH  24  34
ENDBRANCH  20  21
ENDBRANCH  19  20
ENDBRANCH   1  19
TORSDOF 8
