REMARK  Name = 
REMARK  20 active torsions:
REMARK  status: ('A' for Active; 'I' for Inactive)
REMARK    1  A    between atoms: C_1  and  C_2
REMARK    2  A    between atoms: C_2  and  C_3
REMARK    3  A    between atoms: C_2  and  C_4
REMARK    4  A    between atoms: C_4  and  N_5
REMARK    5  A    between atoms: C_4  and  C_12
REMARK    6  A    between atoms: N_14  and  C_15
REMARK    7  A    between atoms: C_15  and  C_16
REMARK    8  A    between atoms: C_15  and  C_40
REMARK    9  A    between atoms: C_16  and  C_17
REMARK   10  A    between atoms: C_17  and  O_18
REMARK   11  A    between atoms: C_17  and  C_19
REMARK   12  A    between atoms: C_19  and  C_20
REMARK   13  A    between atoms: C_19  and  N_27
REMARK   14  A    between atoms: C_20  and  C_21
REMARK   15  A    between atoms: C_28  and  C_30
REMARK   16  A    between atoms: C_30  and  O_31
REMARK   17  A    between atoms: O_31  and  C_32
REMARK   18  A    between atoms: C_33  and  C_34
REMARK   19  A    between atoms: C_38  and  C_39
REMARK   20  A    between atoms: C_40  and  C_41
REMARK                            x       y       z     vdW  Elec       q    Type
REMARK                         _______ _______ _______ _____ _____    ______ ____
ROOT
ATOM      1  C   UNL     1      -0.621  -0.062  -0.011  0.00  0.00    +0.055 C 
ENDROOT
BRANCH   1   2
ATOM      2  C   UNL     1      -1.569   0.074   1.204  0.00  0.00    +0.080 C 
BRANCH   2   5
ATOM      3  C   UNL     1      -3.785   1.327   1.192  0.00  0.00    +0.234 C 
ATOM      4  O   UNL     1      -3.630   1.780   2.361  0.00  0.00    -0.274 OA
ATOM      5  N   UNL     1      -2.938   0.273   0.715  0.00  0.00    -0.311 N 
ATOM      6  H   UNL     1      -3.288  -0.325  -0.068  0.00  0.00    +0.149 HD
BRANCH   3   7
ATOM      7  C   UNL     1      -4.895   1.842   0.299  0.00  0.00    +0.166 C 
BRANCH   7   8
ATOM      8  N   UNL     1      -5.892   0.769   0.075  0.00  0.00    -0.274 N 
ATOM      9  C   UNL     1      -6.566   0.138   1.222  0.00  0.00    +0.111 C 
ATOM     10  C   UNL     1      -7.904  -0.489   0.814  0.00  0.00    +0.038 C 
ATOM     11  C   UNL     1      -7.693  -1.493  -0.320  0.00  0.00    +0.107 C 
ATOM     12  N   UNL     1      -7.026  -0.851  -1.449  0.00  0.00    -0.299 N 
ATOM     13  C   UNL     1      -6.082   0.208  -1.247  0.00  0.00    +0.303 C 
ATOM     14  O   UNL     1      -5.439   0.654  -2.236  0.00  0.00    -0.253 OA
ATOM     15  H   UNL     1      -7.145  -1.257  -2.407  0.00  0.00    +0.150 HD
ENDBRANCH   7   8
BRANCH   7  17
ATOM     16  C   UNL     1      -4.575   4.339   0.751  0.00  0.00    +0.009 C 
ATOM     17  C   UNL     1      -5.561   3.155   0.820  0.00  0.00    +0.012 C 
ATOM     18  C   UNL     1      -6.827   3.506   0.019  0.00  0.00    +0.009 C 
ENDBRANCH   7  17
ENDBRANCH   3   7
ENDBRANCH   2   5
BRANCH   2  19
ATOM     19  C   UNL     1      -1.507  -1.118   2.190  0.00  0.00    +0.057 C 
BRANCH  19  20
ATOM     20  C   UNL     1      -2.187  -2.364   1.677  0.00  0.00    -0.046 A 
ATOM     21  C   UNL     1      -1.467  -3.334   0.957  0.00  0.00    +0.004 A 
ATOM     22  C   UNL     1      -2.118  -4.475   0.472  0.00  0.00    +0.000 A 
ATOM     23  C   UNL     1      -3.486  -4.653   0.696  0.00  0.00    +0.000 A 
ATOM     24  C   UNL     1      -4.205  -3.698   1.420  0.00  0.00    +0.000 A 
ATOM     25  C   UNL     1      -3.556  -2.566   1.921  0.00  0.00    +0.004 A 
ENDBRANCH  19  20
ENDBRANCH   2  19
ENDBRANCH   1   2
BRANCH   1  26
ATOM     26  C   UNL     1       0.888  -0.165   0.338  0.00  0.00    +0.137 C 
BRANCH  26  27
ATOM     27  O   UNL     1       1.204   0.654   1.438  0.00  0.00    -0.390 OA
ATOM     28  H   UNL     1       1.041   1.595   1.165  0.00  0.00    +0.210 HD
ENDBRANCH  26  27
BRANCH  26  29
ATOM     29  C   UNL     1       1.804   0.203  -0.867  0.00  0.00    +0.106 C 
BRANCH  29  30
ATOM     30  N   UNL     1       3.211   0.204  -0.451  0.00  0.00    -0.307 N 
ATOM     31  C   UNL     1       4.226   0.936  -1.157  0.00  0.00    +0.251 C 
ATOM     32  O   UNL     1       3.919   1.670  -2.135  0.00  0.00    -0.272 OA
ATOM     33  H   UNL     1       3.498  -0.375   0.372  0.00  0.00    +0.149 HD
BRANCH  31  34
ATOM     34  C   UNL     1       5.665   0.787  -0.774  0.00  0.00    +0.324 C 
BRANCH  34  35
ATOM     35  O   UNL     1       6.270   2.071  -0.665  0.00  0.00    -0.482 OA
BRANCH  35  36
ATOM     36  C   UNL     1       7.577   2.219  -0.191  0.00  0.00    +0.127 A 
ATOM     37  C   UNL     1       8.653   2.264  -1.099  0.00  0.00    -0.009 A 
ATOM     38  C   UNL     1       8.408   2.169  -2.579  0.00  0.00    +0.047 C 
ATOM     39  C   UNL     1       9.967   2.347  -0.612  0.00  0.00    +0.007 A 
ATOM     40  C   UNL     1      10.206   2.420   0.760  0.00  0.00    +0.001 A 
ATOM     41  C   UNL     1       9.139   2.410   1.661  0.00  0.00    +0.007 A 
ATOM     42  C   UNL     1       7.819   2.326   1.195  0.00  0.00    -0.009 A 
ATOM     43  C   UNL     1       6.683   2.289   2.180  0.00  0.00    +0.047 C 
ENDBRANCH  35  36
ENDBRANCH  34  35
ENDBRANCH  31  34
ENDBRANCH  29  30
BRANCH  29  44
ATOM     44  C   UNL     1       1.611  -0.709  -2.104  0.00  0.00    +0.060 C 
BRANCH  44  45
ATOM     45  C   UNL     1       1.972  -2.156  -1.859  0.00  0.00    -0.046 A 
ATOM     46  C   UNL     1       0.964  -3.124  -1.694  0.00  0.00    +0.004 A 
ATOM     47  C   UNL     1       1.304  -4.460  -1.459  0.00  0.00    +0.000 A 
ATOM     48  C   UNL     1       2.647  -4.841  -1.401  0.00  0.00    +0.000 A 
ATOM     49  C   UNL     1       3.654  -3.891  -1.591  0.00  0.00    +0.000 A 
ATOM     50  C   UNL     1       3.320  -2.555  -1.826  0.00  0.00    +0.004 A 
ENDBRANCH  44  45
ENDBRANCH  29  44
ENDBRANCH  26  29
ENDBRANCH   1  26
TORSDOF 16
