REMARK  Name = 
REMARK  6 active torsions:
REMARK  status: ('A' for Active; 'I' for Inactive)
REMARK    1  A    between atoms: N_1  and  CA_2
REMARK    2  A    between atoms: CA_2  and  C_3
REMARK    3  A    between atoms: CA_2  and  C_19
REMARK    4  A    between atoms: N_5  and  CA_6
REMARK    5  A    between atoms: CA_12  and  C_16
REMARK    6  A    between atoms: C_16  and  O_17
REMARK                            x       y       z     vdW  Elec       q    Type
REMARK                         _______ _______ _______ _____ _____    ______ ____
ROOT
ATOM      1  C   UNL     1       1.077  -0.673  -1.094  0.00  0.00    +0.235 C 
ATOM      2  O   UNL     1       0.964  -0.778  -2.346  0.00  0.00    -0.274 OA
ATOM      3  N   UNL     1       0.210   0.210  -0.367  0.00  0.00    -0.301 N 
ATOM      4  H   UNL     1       0.354   0.331   0.661  0.00  0.00    +0.150 HD
ENDROOT
BRANCH   3   5
ATOM      5  CA  UNL     1      -0.852   0.965  -1.038  0.00  0.00    +0.180 C 
ATOM      6  C   UNL     1      -2.076   0.220  -1.264  0.00  0.00    +0.111 C 
ATOM      7  C   UNL     1      -2.191  -1.251  -0.825  0.00  0.00    +0.031 C 
ATOM      8  C   UNL     1      -3.685  -1.605  -0.631  0.00  0.00    +0.051 C 
ATOM      9  C   UNL     1      -4.433  -0.629   0.272  0.00  0.00    +0.047 C 
ATOM     10 CL   UNL     1      -5.920  -1.224   1.007  0.00  0.00    -0.086 Cl
ATOM     11  CA  UNL     1      -4.014   0.655   0.393  0.00  0.00    +0.136 C 
ATOM     12  N   UNL     1      -2.822   0.998  -0.310  0.00  0.00    -0.258 N 
ATOM     13  C   UNL     1      -1.619   1.831  -0.082  0.00  0.00    +0.242 C 
ATOM     14  O   UNL     1      -1.340   2.818   0.648  0.00  0.00    -0.273 OA
BRANCH  11  15
ATOM     15  C   UNL     1      -4.666   1.679   1.241  0.00  0.00    +0.352 C 
ATOM     16  OXT UNL     1      -5.530   1.369   2.104  0.00  0.00    -0.244 OA
BRANCH  15  17
ATOM     17  O   UNL     1      -4.304   3.015   1.095  0.00  0.00    -0.476 OA
ATOM     18  H   UNL     1      -4.728   3.735   1.667  0.00  0.00    +0.295 HD
ENDBRANCH  15  17
ENDBRANCH  11  15
ENDBRANCH   3   5
BRANCH   1  19
ATOM     19  CA  UNL     1       2.149  -1.455  -0.384  0.00  0.00    +0.168 C 
BRANCH  19  20
ATOM     20  C   UNL     1       3.327  -0.551  -0.087  0.00  0.00    -0.022 A 
ATOM     21  C   UNL     1       4.399  -0.482  -0.994  0.00  0.00    +0.005 A 
ATOM     22  C   UNL     1       5.476   0.378  -0.755  0.00  0.00    +0.000 A 
ATOM     23  C   UNL     1       5.488   1.185   0.385  0.00  0.00    +0.000 A 
ATOM     24  C   UNL     1       4.422   1.137   1.286  0.00  0.00    +0.000 A 
ATOM     25  C   UNL     1       3.343   0.279   1.052  0.00  0.00    +0.005 A 
ENDBRANCH  19  20
BRANCH  19  26
ATOM     26  N   UNL     1       1.619  -2.054   0.843  0.00  0.00    -0.316 NA
ATOM     27  H1  UNL     1       0.845  -2.708   0.582  0.00  0.00    +0.119 HD
ATOM     28  H2  UNL     1       2.369  -2.645   1.269  0.00  0.00    +0.119 HD
ENDBRANCH  19  26
ENDBRANCH   1  19
TORSDOF 6
