REMARK  Name = 
REMARK  2 active torsions:
REMARK  status: ('A' for Active; 'I' for Inactive)
REMARK    1  A    between atoms: O_1  and  C_2
REMARK    2  A    between atoms: C_4  and  C_5
REMARK                            x       y       z     vdW  Elec       q    Type
REMARK                         _______ _______ _______ _____ _____    ______ ____
ROOT
ATOM      1  C   UNL     1       1.390   2.345  -0.962  0.00  0.00    +0.320 C 
ATOM      2  N   UNL     1       0.065   1.743  -0.894  0.00  0.00    -0.243 NA
ATOM      3  C   UNL     1      -0.225   0.569  -0.412  0.00  0.00    +0.079 C 
ATOM      4  C   UNL     1       0.818  -0.344   0.141  0.00  0.00    +0.023 A 
ATOM      5  C   UNL     1       1.859   0.103   0.997  0.00  0.00    +0.043 A 
ATOM      6  N   UNL     1       2.025   1.485   1.357  0.00  0.00    -0.281 N 
ATOM      7  C   UNL     1       1.900   2.568   0.429  0.00  0.00    +0.269 C 
ATOM      8  O   UNL     1       2.223   3.732   0.789  0.00  0.00    -0.270 OA
ATOM      9  C   UNL     1       2.743  -0.836   1.555  0.00  0.00    +0.025 A 
ATOM     10  C   UNL     1       2.632  -2.192   1.249  0.00  0.00    +0.022 A 
ATOM     11  C   UNL     1       1.628  -2.633   0.390  0.00  0.00    +0.042 A 
ATOM     12 CL   UNL     1       1.490  -4.339   0.004  0.00  0.00    -0.084 Cl
ATOM     13  C   UNL     1       0.725  -1.718  -0.157  0.00  0.00    +0.032 A 
ATOM     14  H   UNL     1       2.449   1.702   2.288  0.00  0.00    +0.155 HD
ENDROOT
BRANCH   3  15
ATOM     15  C   UNL     1      -1.645   0.136  -0.420  0.00  0.00    +0.019 A 
ATOM     16  C   UNL     1      -2.189  -0.442   0.742  0.00  0.00    +0.011 A 
ATOM     17  C   UNL     1      -3.525  -0.848   0.775  0.00  0.00    +0.001 A 
ATOM     18  C   UNL     1      -4.334  -0.684  -0.350  0.00  0.00    +0.001 A 
ATOM     19  C   UNL     1      -3.808  -0.119  -1.513  0.00  0.00    +0.020 A 
ATOM     20  C   UNL     1      -2.469   0.292  -1.559  0.00  0.00    +0.050 A 
ATOM     21 CL   UNL     1      -1.855   0.933  -3.080  0.00  0.00    -0.083 Cl
ENDBRANCH   3  15
BRANCH   1  22
ATOM     22  O   UNL     1       2.261   1.518  -1.688  0.00  0.00    -0.364 OA
ATOM     23  H   UNL     1       3.070   2.059  -1.885  0.00  0.00    +0.212 HD
ENDBRANCH   1  22
TORSDOF 2
