REMARK  Name = 
REMARK  3 active torsions:
REMARK  status: ('A' for Active; 'I' for Inactive)
REMARK    1  A    between atoms: C_1  and  C_2
REMARK    2  A    between atoms: C_2  and  O_3
REMARK    3  A    between atoms: O_3  and  C_4
REMARK                            x       y       z     vdW  Elec       q    Type
REMARK                         _______ _______ _______ _____ _____    ______ ____
ROOT
ATOM      1  C   UNL     1       3.756  -1.106   1.365  0.00  0.00    +0.403 C 
ATOM      2  O   UNL     1       3.990  -2.317   1.635  0.00  0.00    -0.226 OA
ATOM      3  N   UNL     1       2.512  -0.501   1.767  0.00  0.00    -0.267 N 
ATOM      4  C   UNL     1       2.162   0.854   1.347  0.00  0.00    +0.115 C 
ATOM      5  C   UNL     1       1.176   0.790   0.178  0.00  0.00    +0.050 C 
ATOM      6  C   UNL     1       0.039  -0.201   0.420  0.00  0.00    -0.057 C 
ATOM      7  C   UNL     1       0.369  -1.501   1.152  0.00  0.00    +0.050 C 
ATOM      8  C   UNL     1       1.399  -1.306   2.267  0.00  0.00    +0.115 C 
ATOM      9  C   UNL     1      -1.188  -0.012  -0.147  0.00  0.00    +0.007 C 
ATOM     10  C   UNL     1      -2.290  -0.972   0.063  0.00  0.00    -0.013 A 
ATOM     11  C   UNL     1      -3.389  -0.592   0.846  0.00  0.00    -0.038 A 
ATOM     12  C   UNL     1      -3.433   0.794   1.429  0.00  0.00    +0.040 C 
ATOM     13  C   UNL     1      -3.707   1.829   0.333  0.00  0.00    +0.042 C 
ATOM     14  C   UNL     1      -2.647   2.012  -0.750  0.00  0.00    -0.021 A 
ATOM     15  C   UNL     1      -1.510   1.178  -0.975  0.00  0.00    +0.075 A 
ATOM     16  N   UNL     1      -0.692   1.442  -2.034  0.00  0.00    -0.255 NA
ATOM     17  C   UNL     1      -0.892   2.485  -2.877  0.00  0.00    +0.111 A 
ATOM     18  C   UNL     1      -1.977   3.331  -2.686  0.00  0.00    +0.020 A 
ATOM     19  C   UNL     1      -2.853   3.089  -1.631  0.00  0.00    +0.007 A 
ATOM     20  C   UNL     1      -4.457  -1.486   1.026  0.00  0.00    +0.024 A 
ATOM     21  C   UNL     1      -4.419  -2.755   0.437  0.00  0.00    +0.041 A 
ATOM     22 CL   UNL     1      -5.753  -3.870   0.669  0.00  0.00    -0.084 Cl
ATOM     23  C   UNL     1      -3.322  -3.130  -0.345  0.00  0.00    +0.020 A 
ATOM     24  C   UNL     1      -2.263  -2.240  -0.539  0.00  0.00    +0.010 A 
ENDROOT
BRANCH   1  25
ATOM     25  O   UNL     1       4.710  -0.351   0.673  0.00  0.00    -0.451 OA
BRANCH  25  27
ATOM     26  C   UNL     1       6.749   0.184  -0.483  0.00  0.00    +0.048 C 
ATOM     27  C   UNL     1       5.953  -0.890   0.239  0.00  0.00    +0.230 C 
ENDBRANCH  25  27
ENDBRANCH   1  25
TORSDOF 2
