REMARK  Name = 
REMARK  4 active torsions:
REMARK  status: ('A' for Active; 'I' for Inactive)
REMARK    1  A    between atoms: C_1  and  N_2
REMARK    2  A    between atoms: C_4  and  O_5
REMARK    3  A    between atoms: C_4  and  N_6
REMARK    4  A    between atoms: N_6  and  C_7
REMARK                            x       y       z     vdW  Elec       q    Type
REMARK                         _______ _______ _______ _____ _____    ______ ____
ROOT
ATOM      1  C   UNL     1       0.612   0.703  -2.268  0.00  0.00    +0.158 C 
ATOM      2  N   UNL     1       1.085   0.693  -0.885  0.00  0.00    -0.197 N 
ATOM      3  C   UNL     1       0.831  -0.452  -0.048  0.00  0.00    +0.156 C 
ATOM      4  C   UNL     1      -0.422  -0.689   0.415  0.00  0.00    +0.210 C 
ATOM      5  C   UNL     1       2.001  -1.297   0.325  0.00  0.00    +0.222 C 
ATOM      6  O   UNL     1       1.887  -2.547   0.432  0.00  0.00    -0.284 OA
ATOM      7  C   UNL     1       3.327  -0.677   0.501  0.00  0.00    +0.089 A 
ATOM      8  C   UNL     1       3.626   0.647   0.223  0.00  0.00    +0.128 A 
ATOM      9  C   UNL     1       4.956   0.998   0.476  0.00  0.00    +0.057 A 
ATOM     10  C   UNL     1       5.701  -0.069   0.960  0.00  0.00    +0.081 A 
ATOM     11 CL   UNL     1       7.399  -0.019   1.379  0.00  0.00    -0.076 Cl
ATOM     12  S   UNL     1       4.720  -1.434   1.065  0.00  0.00    -0.071 S 
ATOM     13  S   UNL     1       2.423   1.713  -0.457  0.00  0.00    +0.076 S 
ATOM     14  O   UNL     1       2.977   2.395  -1.677  0.00  0.00    -0.150 OA
ATOM     15  O   UNL     1       1.984   2.734   0.555  0.00  0.00    -0.150 OA
ENDROOT
BRANCH   4  16
ATOM     16  O   UNL     1      -0.686  -1.720   1.323  0.00  0.00    -0.494 OA
ATOM     17  H   UNL     1       0.022  -2.232   1.831  0.00  0.00    +0.294 HD
ENDBRANCH   4  16
BRANCH   4  18
ATOM     18  N   UNL     1      -1.514   0.172   0.035  0.00  0.00    -0.269 N 
ATOM     19  H   UNL     1      -1.308   1.132  -0.324  0.00  0.00    +0.156 HD
BRANCH  18  20
ATOM     20  C   UNL     1      -2.897  -0.183   0.209  0.00  0.00    +0.125 A 
ATOM     21  C   UNL     1      -3.893   0.794   0.071  0.00  0.00    +0.044 A 
ATOM     22  C   UNL     1      -5.233   0.440   0.238  0.00  0.00    +0.005 A 
ATOM     23  C   UNL     1      -5.571  -0.882   0.528  0.00  0.00    +0.020 A 
ATOM     24  C   UNL     1      -4.557  -1.834   0.642  0.00  0.00    +0.113 A 
ATOM     25  N   UNL     1      -3.257  -1.469   0.481  0.00  0.00    -0.240 NA
ENDBRANCH  18  20
ENDBRANCH   4  18
TORSDOF 3
