REMARK  Name = 
REMARK  10 active torsions:
REMARK  status: ('A' for Active; 'I' for Inactive)
REMARK    1  A    between atoms: C_1  and  C_2
REMARK    2  A    between atoms: C_2  and  C_3
REMARK    3  A    between atoms: C_3  and  C_4
REMARK    4  A    between atoms: C_4  and  C_5
REMARK    5  A    between atoms: C_9  and  C_10
REMARK    6  A    between atoms: C_10  and  O_11
REMARK    7  A    between atoms: N_12  and  C_13
REMARK    8  A    between atoms: C_13  and  C_14
REMARK    9  A    between atoms: C_17  and  C_20
REMARK   10  A    between atoms: C_25  and  C_26
REMARK                            x       y       z     vdW  Elec       q    Type
REMARK                         _______ _______ _______ _____ _____    ______ ____
ROOT
ATOM      1  C   UNL     1      -0.201   0.771   0.375  0.00  0.00    -0.028 A 
ATOM      2  C   UNL     1       0.448   0.454  -0.830  0.00  0.00    +0.006 A 
ATOM      3  C   UNL     1       1.701  -0.163  -0.818  0.00  0.00    +0.009 A 
ATOM      4  C   UNL     1       2.332  -0.457   0.399  0.00  0.00    -0.017 A 
ATOM      5  C   UNL     1       1.688  -0.143   1.604  0.00  0.00    +0.009 A 
ATOM      6  C   UNL     1       0.436   0.478   1.592  0.00  0.00    +0.006 A 
ENDROOT
BRANCH   4   7
ATOM      7  C   UNL     1       3.652  -1.119   0.413  0.00  0.00    -0.007 A 
ATOM      8  C   UNL     1       3.715  -2.442   0.881  0.00  0.00    +0.009 A 
ATOM      9  C   UNL     1       4.920  -3.145   0.864  0.00  0.00    +0.001 A 
ATOM     10  C   UNL     1       6.077  -2.536   0.381  0.00  0.00    +0.001 A 
ATOM     11  C   UNL     1       6.037  -1.218  -0.075  0.00  0.00    +0.012 A 
ATOM     12  C   UNL     1       4.835  -0.483  -0.057  0.00  0.00    +0.030 A 
BRANCH  12  13
ATOM     13  C   UNL     1       4.872   0.941  -0.487  0.00  0.00    +0.205 A 
ATOM     14  N   UNL     1       5.918   1.511  -1.120  0.00  0.00    -0.133 NA
ATOM     15  N   UNL     1       5.558   2.774  -1.270  0.00  0.00    -0.176 N 
ATOM     16  N   UNL     1       4.359   2.984  -0.753  0.00  0.00    -0.049 NA
ATOM     17  N   UNL     1       3.903   1.850  -0.248  0.00  0.00    -0.108 NA
ATOM     18  H   UNL     1       6.144   3.507  -1.725  0.00  0.00    +0.214 HD
ENDBRANCH  12  13
ENDBRANCH   4   7
BRANCH   1  19
ATOM     19  C   UNL     1      -1.538   1.468   0.354  0.00  0.00    +0.158 C 
BRANCH  19  25
ATOM     20  C   UNL     1      -3.148  -0.365   1.033  0.00  0.00    +0.112 A 
ATOM     21  N   UNL     1      -3.978  -0.700   2.045  0.00  0.00    -0.220 NA
ATOM     22  C   UNL     1      -3.818   0.290   2.944  0.00  0.00    +0.153 A 
ATOM     23 CL   UNL     1      -4.695   0.372   4.461  0.00  0.00    -0.060 Cl
ATOM     24  C   UNL     1      -2.903   1.209   2.473  0.00  0.00    +0.083 A 
ATOM     25  N   UNL     1      -2.495   0.804   1.251  0.00  0.00    -0.324 N 
BRANCH  20  26
ATOM     26  C   UNL     1      -3.052  -1.181  -0.225  0.00  0.00    +0.074 C 
BRANCH  26  27
ATOM     27  C   UNL     1      -4.096  -0.721  -1.247  0.00  0.00    +0.007 C 
BRANCH  27  29
ATOM     28  C   UNL     1      -5.021  -1.076  -3.566  0.00  0.00    +0.004 C 
ATOM     29  C   UNL     1      -3.988  -1.534  -2.541  0.00  0.00    -0.003 C 
ENDBRANCH  27  29
ENDBRANCH  26  27
ENDBRANCH  20  26
BRANCH  24  30
ATOM     30  C   UNL     1      -2.514   2.493   3.155  0.00  0.00    +0.212 C 
BRANCH  30  31
ATOM     31  O   UNL     1      -3.396   3.518   2.789  0.00  0.00    -0.389 OA
ATOM     32  H   UNL     1      -3.142   3.800   1.872  0.00  0.00    +0.210 HD
ENDBRANCH  30  31
ENDBRANCH  24  30
ENDBRANCH  19  25
ENDBRANCH   1  19
TORSDOF 9
