REMARK  Name = 
REMARK  7 active torsions:
REMARK  status: ('A' for Active; 'I' for Inactive)
REMARK    1  A    between atoms: C_4  and  O_5
REMARK    2  A    between atoms: C_4  and  C_6
REMARK    3  A    between atoms: C_6  and  O_8
REMARK    4  A    between atoms: O_8  and  C_9
REMARK    5  A    between atoms: C_11  and  C_12
REMARK    6  A    between atoms: C_14  and  O_15
REMARK    7  A    between atoms: C_26  and  C_27
REMARK                            x       y       z     vdW  Elec       q    Type
REMARK                         _______ _______ _______ _____ _____    ______ ____
ROOT
ATOM      1  C   UNL     1       0.496   1.159  -0.581  0.00  0.00    +0.002 C 
ATOM      2  C   UNL     1       1.043   1.906  -1.790  0.00  0.00    +0.008 C 
ATOM      3  C   UNL     1       2.546   2.064  -1.498  0.00  0.00    +0.047 C 
ATOM      4  C   UNL     1       2.848   1.264  -0.197  0.00  0.00    +0.168 C 
ATOM      5  C   UNL     1       1.651   0.254  -0.129  0.00  0.00    +0.013 C 
ATOM      6  C   UNL     1       1.918  -0.937  -1.114  0.00  0.00    +0.015 C 
ATOM      7  C   UNL     1       1.297  -0.286   1.283  0.00  0.00    +0.042 C 
ATOM      8  C   UNL     1      -0.068  -1.030   1.317  0.00  0.00    +0.120 C 
ATOM      9  C   UNL     1      -1.234  -0.183   0.689  0.00  0.00    +0.035 C 
ATOM     10  C   UNL     1      -0.858   0.423  -0.711  0.00  0.00    -0.000 C 
ATOM     11  C   UNL     1      -1.951   1.407  -1.187  0.00  0.00    +0.008 C 
ATOM     12  C   UNL     1      -3.321   0.737  -1.250  0.00  0.00    +0.032 C 
ATOM     13  C   UNL     1      -3.653   0.136   0.092  0.00  0.00    -0.056 C 
ATOM     14  C   UNL     1      -4.795   0.486   0.707  0.00  0.00    +0.051 C 
ATOM     15  C   UNL     1      -5.117  -0.025   2.038  0.00  0.00    +0.179 C 
ATOM     16  O   UNL     1      -6.201   0.294   2.594  0.00  0.00    -0.288 OA
ATOM     17  C   UNL     1      -4.166  -0.894   2.725  0.00  0.00    +0.047 C 
ATOM     18  C   UNL     1      -3.030  -1.260   2.131  0.00  0.00    -0.012 C 
ATOM     19  C   UNL     1      -2.658  -0.868   0.699  0.00  0.00    +0.013 C 
ATOM     20  C   UNL     1      -2.725  -2.162  -0.147  0.00  0.00    +0.020 C 
ENDROOT
BRANCH   4  21
ATOM     21  O   UNL     1       2.801   2.176   0.881  0.00  0.00    -0.377 OA
ATOM     22  H   UNL     1       3.164   1.729   1.690  0.00  0.00    +0.211 HD
ENDBRANCH   4  21
BRANCH   4  23
ATOM     23  C   UNL     1       4.223   0.610  -0.231  0.00  0.00    +0.341 C 
ATOM     24  O   UNL     1       5.126   1.059  -0.990  0.00  0.00    -0.248 OA
BRANCH  23  25
ATOM     25  O   UNL     1       4.508  -0.433   0.658  0.00  0.00    -0.447 OA
BRANCH  25  26
ATOM     26  C   UNL     1       5.781  -1.066   0.737  0.00  0.00    +0.340 C 
ATOM     27 CL   UNL     1       6.972   0.033   1.478  0.00  0.00    -0.081 Cl
ENDBRANCH  25  26
ENDBRANCH  23  25
ENDBRANCH   4  23
BRANCH   8  28
ATOM     28  O   UNL     1       0.044  -2.282   0.696  0.00  0.00    -0.391 OA
ATOM     29  H   UNL     1       0.566  -2.865   1.307  0.00  0.00    +0.210 HD
ENDBRANCH   8  28
TORSDOF 5
