REMARK  Name = 
REMARK  12 active torsions:
REMARK  status: ('A' for Active; 'I' for Inactive)
REMARK    1  A    between atoms: C_2  and  O_23
REMARK    2  A    between atoms: C_4  and  C_5
REMARK    3  A    between atoms: C_10  and  C_11
REMARK    4  A    between atoms: C_12  and  C_13
REMARK    5  A    between atoms: C_13  and  C_14
REMARK    6  A    between atoms: C_14  and  C_15
REMARK    7  A    between atoms: C_17  and  O_18
REMARK    8  A    between atoms: O_23  and  C_24
REMARK    9  A    between atoms: C_24  and  C_26
REMARK   10  A    between atoms: C_26  and  C_27
REMARK   11  A    between atoms: C_26  and  C_28
REMARK   12  A    between atoms: C_28  and  C_29
REMARK                            x       y       z     vdW  Elec       q    Type
REMARK                         _______ _______ _______ _____ _____    ______ ____
ROOT
ATOM      1  C   UNL     1      -0.215  -0.555  -0.541  0.00  0.00    +0.063 C 
ATOM      2  C   UNL     1      -1.522  -1.199  -0.011  0.00  0.00    +0.185 C 
ATOM      3  C   UNL     1      -2.440  -1.719  -1.165  0.00  0.00    +0.052 C 
ATOM      4  C   UNL     1      -1.947  -1.359  -2.591  0.00  0.00    +0.012 C 
ATOM      5  C   UNL     1      -3.071  -1.517  -3.621  0.00  0.00    +0.012 C 
ATOM      6  C   UNL     1      -1.376   0.038  -2.624  0.00  0.00    -0.020 C 
ATOM      7  C   UNL     1      -0.547   0.430  -1.650  0.00  0.00    -0.044 C 
ATOM      8  C   UNL     1       0.004   1.800  -1.639  0.00  0.00    -0.000 C 
ATOM      9  C   UNL     1       0.490   2.322  -0.513  0.00  0.00    -0.023 C 
ATOM     10  C   UNL     1       0.356   1.571   0.785  0.00  0.00    +0.012 C 
ATOM     11  C   UNL     1       1.146   2.250   1.915  0.00  0.00    +0.012 C 
ATOM     12  C   UNL     1       0.688   0.060   0.588  0.00  0.00    +0.007 C 
ENDROOT
BRANCH  12  13
ATOM     13  C   UNL     1       2.191  -0.179   0.267  0.00  0.00    +0.008 C 
BRANCH  13  14
ATOM     14  C   UNL     1       2.642  -1.611   0.620  0.00  0.00    +0.045 C 
BRANCH  14  15
ATOM     15  C   UNL     1       4.007  -1.992   0.016  0.00  0.00    +0.179 C 
ATOM     16  C   UNL     1       5.183  -1.137   0.563  0.00  0.00    +0.076 C 
ATOM     17  C   UNL     1       5.598  -0.004  -0.389  0.00  0.00    +0.129 C 
ATOM     18  C   UNL     1       5.958  -0.580  -1.756  0.00  0.00    +0.152 C 
ATOM     19  C   UNL     1       4.821  -1.395  -2.283  0.00  0.00    +0.310 C 
ATOM     20  O   UNL     1       4.695  -1.560  -3.524  0.00  0.00    -0.251 OA
ATOM     21  O   UNL     1       3.914  -2.009  -1.415  0.00  0.00    -0.461 OA
BRANCH  17  22
ATOM     22  O   UNL     1       6.713   0.669   0.132  0.00  0.00    -0.391 OA
ATOM     23  H   UNL     1       6.382   1.247   0.869  0.00  0.00    +0.210 HD
ENDBRANCH  17  22
ENDBRANCH  14  15
ENDBRANCH  13  14
ENDBRANCH  12  13
BRANCH   2  24
ATOM     24  O   UNL     1      -2.246  -0.254   0.781  0.00  0.00    -0.461 OA
BRANCH  24  25
ATOM     25  C   UNL     1      -3.249  -0.622   1.686  0.00  0.00    +0.310 C 
ATOM     26  O   UNL     1      -3.478  -1.838   1.929  0.00  0.00    -0.251 OA
BRANCH  25  27
ATOM     27  C   UNL     1      -4.114   0.435   2.314  0.00  0.00    +0.094 C 
ATOM     28  C   UNL     1      -3.255   1.609   2.807  0.00  0.00    +0.019 C 
BRANCH  27  29
ATOM     29  C   UNL     1      -5.180   0.886   1.295  0.00  0.00    +0.011 C 
ATOM     30  C   UNL     1      -6.244   1.794   1.914  0.00  0.00    +0.004 C 
ENDBRANCH  27  29
ENDBRANCH  25  27
ENDBRANCH  24  25
ENDBRANCH   2  24
TORSDOF 8
