REMARK  Name = 
REMARK  1 active torsions:
REMARK  status: ('A' for Active; 'I' for Inactive)
REMARK    1  A    between atoms: C_1  and  N_2
REMARK                            x       y       z     vdW  Elec       q    Type
REMARK                         _______ _______ _______ _____ _____    ______ ____
ROOT
ATOM      1  C   UNL     1       4.995  -0.826  -0.666  0.00  0.00    +0.105 C 
ATOM      2  N   UNL     1       3.589  -0.493  -0.390  0.00  0.00    -0.302 NA
ATOM      3  C   UNL     1       3.360   0.953  -0.548  0.00  0.00    +0.103 C 
ATOM      4  C   UNL     1       1.852   1.218  -0.550  0.00  0.00    +0.122 C 
ATOM      5  N   UNL     1       1.174   0.375   0.444  0.00  0.00    -0.312 N 
ATOM      6  C   UNL     1       1.959  -0.239   1.522  0.00  0.00    +0.122 C 
ATOM      7  C   UNL     1       3.201  -0.964   0.962  0.00  0.00    +0.103 C 
ATOM      8  C   UNL     1      -0.234   0.098   0.312  0.00  0.00    +0.133 C 
ATOM      9  N   UNL     1      -0.628  -1.134   0.452  0.00  0.00    -0.228 NA
ATOM     10  C   UNL     1      -1.936  -1.700   0.315  0.00  0.00    +0.108 A 
ATOM     11  C   UNL     1      -2.209  -2.882   1.018  0.00  0.00    +0.031 A 
ATOM     12  C   UNL     1      -3.400  -3.579   0.805  0.00  0.00    +0.002 A 
ATOM     13  C   UNL     1      -4.317  -3.119  -0.140  0.00  0.00    +0.004 A 
ATOM     14  C   UNL     1      -4.046  -1.956  -0.863  0.00  0.00    +0.048 A 
ATOM     15  C   UNL     1      -2.869  -1.232  -0.634  0.00  0.00    +0.154 A 
ATOM     16  O   UNL     1      -2.666  -0.069  -1.374  0.00  0.00    -0.453 OA
ATOM     17  C   UNL     1      -2.267   1.135  -0.798  0.00  0.00    +0.139 A 
ATOM     18  C   UNL     1      -1.173   1.227   0.085  0.00  0.00    +0.058 A 
ATOM     19  C   UNL     1      -0.899   2.464   0.701  0.00  0.00    +0.035 A 
ATOM     20  C   UNL     1      -1.663   3.596   0.403  0.00  0.00    +0.042 A 
ATOM     21 CL   UNL     1      -1.295   5.130   1.169  0.00  0.00    -0.084 Cl
ATOM     22  C   UNL     1      -2.707   3.508  -0.518  0.00  0.00    +0.023 A 
ATOM     23  C   UNL     1      -3.004   2.283  -1.117  0.00  0.00    +0.048 A 
ENDROOT
TORSDOF 0
