REMARK  Name = 
REMARK  14 active torsions:
REMARK  status: ('A' for Active; 'I' for Inactive)
REMARK    1  A    between atoms: C_5  and  C_6
REMARK    2  A    between atoms: C_6  and  C_7
REMARK    3  A    between atoms: C_7  and  C_8
REMARK    4  A    between atoms: C_8  and  C_9
REMARK    5  A    between atoms: C_9  and  C_10
REMARK    6  A    between atoms: C_10  and  C_11
REMARK    7  A    between atoms: C_11  and  C_12
REMARK    8  A    between atoms: C_12  and  O_13
REMARK    9  A    between atoms: C_18  and  O_19
REMARK   10  A    between atoms: C_18  and  C_21
REMARK   11  A    between atoms: C_21  and  C_24
REMARK   12  A    between atoms: C_24  and  C_25
REMARK   13  A    between atoms: C_25  and  C_26
REMARK   14  A    between atoms: C_26  and  C_27
REMARK                            x       y       z     vdW  Elec       q    Type
REMARK                         _______ _______ _______ _____ _____    ______ ____
ROOT
ATOM      1  C   UNL     1      -1.063   1.282  -0.438  0.00  0.00    +0.133 C 
ATOM      2  C   UNL     1      -0.423   1.410  -1.815  0.00  0.00    +0.106 C 
ATOM      3  C   UNL     1       0.641   0.365  -1.782  0.00  0.00    +0.139 C 
ATOM      4  O   UNL     1       1.430   0.200  -2.700  0.00  0.00    -0.297 OA
ATOM      5  C   UNL     1       0.594  -0.513  -0.565  0.00  0.00    +0.061 C 
ATOM      6  C   UNL     1      -0.810  -0.165  -0.027  0.00  0.00    +0.029 C 
ATOM      7  C   UNL     1      -1.155  -0.358   1.459  0.00  0.00    +0.012 C 
ATOM      8  C   UNL     1      -2.175   0.702   1.936  0.00  0.00    +0.071 C 
ATOM      9  C   UNL     1      -3.098   1.304   0.807  0.00  0.00    +0.232 C 
ATOM     10  O   UNL     1      -2.450   1.538  -0.460  0.00  0.00    -0.340 OA
ENDROOT
BRANCH   9  11
ATOM     11  C   UNL     1      -4.317   0.360   0.575  0.00  0.00    +0.301 C 
ATOM     12  F   UNL     1      -5.068   0.294   1.739  0.00  0.00    -0.200 F 
ATOM     13  F   UNL     1      -3.859  -0.911   0.280  0.00  0.00    -0.200 F 
BRANCH  11  14
ATOM     14  C   UNL     1      -5.222   0.848  -0.583  0.00  0.00    +0.081 C 
BRANCH  14  15
ATOM     15  C   UNL     1      -6.556   0.087  -0.705  0.00  0.00    +0.006 C 
BRANCH  15  16
ATOM     16  C   UNL     1      -6.391  -1.356  -1.205  0.00  0.00    -0.003 C 
ATOM     17  C   UNL     1      -7.743  -1.981  -1.539  0.00  0.00    +0.004 C 
ENDBRANCH  15  16
ENDBRANCH  14  15
ENDBRANCH  11  14
ENDBRANCH   9  11
BRANCH   9  18
ATOM     18  O   UNL     1      -3.581   2.531   1.307  0.00  0.00    -0.360 OA
ATOM     19  H   UNL     1      -3.772   3.134   0.541  0.00  0.00    +0.213 HD
ENDBRANCH   9  18
BRANCH   5  20
ATOM     20  C   UNL     1       1.754  -0.205   0.413  0.00  0.00    +0.011 C 
BRANCH  20  21
ATOM     21  C   UNL     1       3.140  -0.423  -0.215  0.00  0.00    +0.001 C 
BRANCH  21  22
ATOM     22  C   UNL     1       4.248  -0.332   0.842  0.00  0.00    +0.000 C 
BRANCH  22  23
ATOM     23  C   UNL     1       5.628  -0.534   0.207  0.00  0.00    +0.001 C 
BRANCH  23  24
ATOM     24  C   UNL     1       6.741  -0.449   1.262  0.00  0.00    +0.011 C 
BRANCH  24  25
ATOM     25  C   UNL     1       8.126  -0.744   0.671  0.00  0.00    +0.120 C 
BRANCH  25  26
ATOM     26  C   UNL     1       8.578   0.344  -0.256  0.00  0.00    +0.305 C 
ATOM     27  O   UNL     1       9.170   1.358   0.201  0.00  0.00    -0.251 OA
BRANCH  26  28
ATOM     28  O   UNL     1       8.315   0.248  -1.619  0.00  0.00    -0.481 OA
ATOM     29  H   UNL     1       8.603   0.981  -2.256  0.00  0.00    +0.295 HD
ENDBRANCH  26  28
ENDBRANCH  25  26
ENDBRANCH  24  25
ENDBRANCH  23  24
ENDBRANCH  22  23
ENDBRANCH  21  22
ENDBRANCH  20  21
ENDBRANCH   5  20
TORSDOF 13
