REMARK  Name = 
REMARK  9 active torsions:
REMARK  status: ('A' for Active; 'I' for Inactive)
REMARK    1  A    between atoms: C_1  and  C_2
REMARK    2  A    between atoms: C_2  and  N_3
REMARK    3  A    between atoms: N_3  and  C_4
REMARK    4  A    between atoms: N_3  and  C_6
REMARK    5  A    between atoms: C_4  and  C_5
REMARK    6  A    between atoms: C_6  and  C_7
REMARK    7  A    between atoms: C_7  and  N_8
REMARK    8  A    between atoms: N_8  and  C_9
REMARK    9  A    between atoms: C_21  and  C_22
REMARK                            x       y       z     vdW  Elec       q    Type
REMARK                         _______ _______ _______ _____ _____    ______ ____
ROOT
ATOM      1  C   UNL     1      -0.519   0.467  -1.455  0.00  0.00    +0.039 A 
ATOM      2  C   UNL     1      -1.729   0.394  -0.689  0.00  0.00    +0.057 A 
ATOM      3  C   UNL     1      -2.123  -0.828  -0.026  0.00  0.00    +0.197 A 
ATOM      4  O   UNL     1      -1.333  -1.811  -0.067  0.00  0.00    -0.287 OA
ATOM      5  C   UNL     1      -3.341  -1.020   0.703  0.00  0.00    +0.036 A 
ATOM      6  C   UNL     1      -3.631  -2.286   1.271  0.00  0.00    +0.013 A 
ATOM      7  C   UNL     1      -4.810  -2.503   1.990  0.00  0.00    +0.001 A 
ATOM      8  C   UNL     1      -5.727  -1.468   2.164  0.00  0.00    +0.001 A 
ATOM      9  C   UNL     1      -5.467  -0.212   1.621  0.00  0.00    +0.016 A 
ATOM     10  C   UNL     1      -4.287   0.007   0.899  0.00  0.00    +0.024 A 
ATOM     11  S   UNL     1      -3.964   1.522   0.263  0.00  0.00    -0.088 S 
ATOM     12  C   UNL     1      -2.503   1.586  -0.584  0.00  0.00    +0.028 A 
ATOM     13  C   UNL     1      -2.076   2.800  -1.165  0.00  0.00    -0.036 A 
ATOM     14  C   UNL     1      -2.890   4.064  -1.043  0.00  0.00    +0.045 C 
ATOM     15  C   UNL     1      -0.872   2.835  -1.867  0.00  0.00    +0.006 A 
ATOM     16  C   UNL     1      -0.111   1.685  -2.015  0.00  0.00    +0.024 A 
ENDROOT
BRANCH   1  17
ATOM     17  N   UNL     1       0.279  -0.696  -1.733  0.00  0.00    -0.342 N 
ATOM     18  H   UNL     1      -0.172  -1.520  -2.192  0.00  0.00    +0.146 HD
BRANCH  17  19
ATOM     19  C   UNL     1       1.710  -0.761  -1.435  0.00  0.00    +0.117 C 
BRANCH  19  20
ATOM     20  C   UNL     1       1.953  -0.656   0.075  0.00  0.00    +0.103 C 
BRANCH  20  21
ATOM     21  N   UNL     1       3.406  -0.703   0.360  0.00  0.00    -0.301 NA
BRANCH  21  23
ATOM     22  C   UNL     1       5.321  -2.228   0.049  0.00  0.00    +0.020 C 
ATOM     23  C   UNL     1       3.875  -2.099   0.519  0.00  0.00    +0.081 C 
ENDBRANCH  21  23
BRANCH  21  24
ATOM     24  C   UNL     1       3.745   0.113   1.549  0.00  0.00    +0.081 C 
ATOM     25  C   UNL     1       3.970   1.568   1.146  0.00  0.00    +0.020 C 
ENDBRANCH  21  24
ENDBRANCH  20  21
ENDBRANCH  19  20
ENDBRANCH  17  19
ENDBRANCH   1  17
TORSDOF 6
