REMARK  Name = 
REMARK  13 active torsions:
REMARK  status: ('A' for Active; 'I' for Inactive)
REMARK    1  A    between atoms: C_1  and  C_2
REMARK    2  A    between atoms: C_2  and  C_3
REMARK    3  A    between atoms: C_3  and  C_4
REMARK    4  A    between atoms: C_4  and  N_5
REMARK    5  A    between atoms: N_5  and  C_6
REMARK    6  A    between atoms: N_5  and  C_10
REMARK    7  A    between atoms: C_6  and  C_7
REMARK    8  A    between atoms: C_7  and  C_8
REMARK    9  A    between atoms: C_8  and  C_9
REMARK   10  A    between atoms: C_10  and  C_11
REMARK   11  A    between atoms: C_11  and  O_12
REMARK   12  A    between atoms: C_11  and  C_13
REMARK   13  A    between atoms: C_21  and  C_22
REMARK                            x       y       z     vdW  Elec       q    Type
REMARK                         _______ _______ _______ _____ _____    ______ ____
ROOT
ATOM      1  C   UNL     1       0.547   0.054   0.733  0.00  0.00    -0.008 A 
ATOM      2  C   UNL     1       1.585   0.114  -0.233  0.00  0.00    -0.004 A 
ATOM      3  C   UNL     1       2.917   0.247   0.164  0.00  0.00    -0.008 A 
ATOM      4  C   UNL     1       3.280   0.127   1.509  0.00  0.00    +0.029 A 
ATOM      5  C   UNL     1       2.278  -0.011   2.472  0.00  0.00    +0.042 A 
ATOM      6 CL   UNL     1       2.711  -0.152   4.167  0.00  0.00    -0.084 Cl
ATOM      7  C   UNL     1       0.928  -0.032   2.092  0.00  0.00    +0.026 A 
ATOM      8  C   UNL     1       3.783   0.363  -1.026  0.00  0.00    -0.009 C 
ATOM      9  C   UNL     1       5.096   0.644  -1.114  0.00  0.00    +0.017 C 
ATOM     10  C   UNL     1       2.882   0.169  -2.164  0.00  0.00    -0.008 A 
ATOM     11  C   UNL     1       1.577   0.025  -1.711  0.00  0.00    -0.009 A 
ATOM     12  C   UNL     1       0.551  -0.282  -2.615  0.00  0.00    +0.010 A 
ATOM     13  C   UNL     1       0.848  -0.357  -3.984  0.00  0.00    +0.020 A 
ATOM     14  C   UNL     1       2.163  -0.162  -4.441  0.00  0.00    +0.042 A 
ATOM     15 CL   UNL     1       2.518  -0.272  -6.155  0.00  0.00    -0.084 Cl
ATOM     16  C   UNL     1       3.195   0.093  -3.527  0.00  0.00    +0.029 A 
ENDROOT
BRANCH   9  17
ATOM     17  C   UNL     1       5.935   1.098   0.007  0.00  0.00    -0.024 A 
ATOM     18  C   UNL     1       5.562   2.212   0.781  0.00  0.00    +0.009 A 
ATOM     19  C   UNL     1       6.392   2.661   1.811  0.00  0.00    +0.020 A 
ATOM     20  C   UNL     1       7.611   2.022   2.060  0.00  0.00    +0.041 A 
ATOM     21 CL   UNL     1       8.653   2.589   3.351  0.00  0.00    -0.084 Cl
ATOM     22  C   UNL     1       8.003   0.936   1.269  0.00  0.00    +0.020 A 
ATOM     23  C   UNL     1       7.173   0.482   0.239  0.00  0.00    +0.009 A 
ENDBRANCH   9  17
BRANCH   1  24
ATOM     24  C   UNL     1      -0.934   0.095   0.395  0.00  0.00    +0.159 C 
BRANCH  24  25
ATOM     25  O   UNL     1      -1.612   0.866   1.354  0.00  0.00    -0.386 OA
ATOM     26  H   UNL     1      -1.370   1.815   1.188  0.00  0.00    +0.210 HD
ENDBRANCH  24  25
BRANCH  24  27
ATOM     27  C   UNL     1      -1.500  -1.343   0.371  0.00  0.00    +0.120 C 
BRANCH  27  28
ATOM     28  N   UNL     1      -2.959  -1.454   0.114  0.00  0.00    -0.300 NA
BRANCH  28  29
ATOM     29  C   UNL     1      -3.411  -1.013  -1.225  0.00  0.00    +0.084 C 
BRANCH  29  30
ATOM     30  C   UNL     1      -3.937   0.438  -1.264  0.00  0.00    +0.015 C 
BRANCH  30  32
ATOM     31  C   UNL     1      -4.641   2.350  -2.752  0.00  0.00    +0.004 C 
ATOM     32  C   UNL     1      -4.086   0.929  -2.708  0.00  0.00    -0.002 C 
ENDBRANCH  30  32
ENDBRANCH  29  30
ENDBRANCH  28  29
BRANCH  28  33
ATOM     33  C   UNL     1      -3.889  -1.146   1.225  0.00  0.00    +0.084 C 
BRANCH  33  34
ATOM     34  C   UNL     1      -3.685  -2.083   2.429  0.00  0.00    +0.015 C 
BRANCH  34  35
ATOM     35  C   UNL     1      -4.813  -1.966   3.466  0.00  0.00    -0.002 C 
ATOM     36  C   UNL     1      -6.091  -2.688   3.038  0.00  0.00    +0.004 C 
ENDBRANCH  34  35
ENDBRANCH  33  34
ENDBRANCH  28  33
ENDBRANCH  27  28
ENDBRANCH  24  27
ENDBRANCH   1  24
TORSDOF 11
