REMARK  Name = 
REMARK  6 active torsions:
REMARK  status: ('A' for Active; 'I' for Inactive)
REMARK    1  A    between atoms: C_1  and  C_2
REMARK    2  A    between atoms: C_4  and  C_5
REMARK    3  A    between atoms: C_5  and  C_6
REMARK    4  A    between atoms: C_6  and  O_7
REMARK    5  A    between atoms: C_9  and  N_10
REMARK    6  A    between atoms: N_10  and  C_11
REMARK                            x       y       z     vdW  Elec       q    Type
REMARK                         _______ _______ _______ _____ _____    ______ ____
ROOT
ATOM      1  C   UNL     1      -4.041   1.949   0.992  0.00  0.00    +0.044 C 
ATOM      2  C   UNL     1      -2.775   1.328   0.480  0.00  0.00    -0.050 A 
ATOM      3  C   UNL     1      -2.793   0.035  -0.060  0.00  0.00    +0.009 A 
ATOM      4  C   UNL     1      -1.622  -0.546  -0.581  0.00  0.00    -0.015 A 
ATOM      5  C   UNL     1      -0.410   0.188  -0.548  0.00  0.00    +0.035 A 
ATOM      6  C   UNL     1      -0.411   1.493  -0.025  0.00  0.00    +0.024 A 
ATOM      7  C   UNL     1      -1.583   2.059   0.477  0.00  0.00    +0.005 A 
ENDROOT
BRANCH   5   8
ATOM      8  N   UNL     1       0.811  -0.380  -1.058  0.00  0.00    -0.311 N 
ATOM      9  H   UNL     1       0.772  -0.948  -1.933  0.00  0.00    +0.152 HD
BRANCH   8  10
ATOM     10  C   UNL     1       2.111  -0.042  -0.547  0.00  0.00    +0.086 A 
ATOM     11  C   UNL     1       3.118   0.354  -1.444  0.00  0.00    +0.146 A 
ATOM     12  F   UNL     1       2.858   0.433  -2.773  0.00  0.00    -0.203 F 
ATOM     13  C   UNL     1       4.390   0.692  -0.973  0.00  0.00    +0.040 A 
ATOM     14  C   UNL     1       4.672   0.624   0.393  0.00  0.00    +0.004 A 
ATOM     15  C   UNL     1       3.687   0.207   1.290  0.00  0.00    +0.022 A 
ATOM     16  C   UNL     1       2.409  -0.133   0.831  0.00  0.00    +0.065 A 
ATOM     17 CL   UNL     1       1.238  -0.739   1.996  0.00  0.00    -0.082 Cl
ENDBRANCH   8  10
ENDBRANCH   5   8
BRANCH   4  18
ATOM     18  C   UNL     1      -1.676  -1.966  -1.095  0.00  0.00    +0.157 C 
BRANCH  18  19
ATOM     19  C   UNL     1      -1.011  -2.896  -0.130  0.00  0.00    +0.309 C 
ATOM     20  O   UNL     1       0.094  -3.427  -0.420  0.00  0.00    -0.251 OA
BRANCH  19  21
ATOM     21  O   UNL     1      -1.606  -3.157   1.101  0.00  0.00    -0.480 OA
ATOM     22  H   UNL     1      -1.163  -3.775   1.771  0.00  0.00    +0.295 HD
ENDBRANCH  19  21
ENDBRANCH  18  19
ENDBRANCH   4  18
TORSDOF 5
