REMARK  Name = 
REMARK  4 active torsions:
REMARK  status: ('A' for Active; 'I' for Inactive)
REMARK    1  A    between atoms: N_12  and  C_13
REMARK    2  A    between atoms: C_13  and  C_14
REMARK    3  A    between atoms: C_19  and  C_20
REMARK    4  A    between atoms: C_20  and  N_21
REMARK                            x       y       z     vdW  Elec       q    Type
REMARK                         _______ _______ _______ _____ _____    ______ ____
ROOT
ATOM      1  C   UNL     1      -1.427  -0.562  -0.768  0.00  0.00    +0.011 C 
ATOM      2  C   UNL     1      -1.986  -1.083  -2.112  0.00  0.00    +0.005 C 
ATOM      3  C   UNL     1      -2.029  -2.620  -2.191  0.00  0.00    +0.000 C 
ATOM      4  C   UNL     1      -0.846  -3.307  -1.482  0.00  0.00    +0.000 C 
ATOM      5  C   UNL     1       0.356  -2.372  -1.334  0.00  0.00    +0.005 C 
ATOM      6  C   UNL     1       0.003  -1.138  -0.465  0.00  0.00    +0.008 C 
ENDROOT
BRANCH   1   7
ATOM      7  C   UNL     1      -2.400  -0.827   0.407  0.00  0.00    +0.120 C 
BRANCH   7  19
ATOM      8  O   UNL     1      -5.063  -1.983  -0.319  0.00  0.00    -0.275 OA
ATOM      9  C   UNL     1      -4.916  -0.743  -0.156  0.00  0.00    +0.226 C 
ATOM     10  C   UNL     1      -6.021   0.258  -0.314  0.00  0.00    +0.091 C 
ATOM     11  C   UNL     1      -7.101   0.154   0.789  0.00  0.00    +0.002 C 
ATOM     12  C   UNL     1      -8.208   1.174   0.462  0.00  0.00    +0.004 C 
ATOM     13  C   UNL     1      -7.535   2.524   0.775  0.00  0.00    +0.004 C 
ATOM     14  C   UNL     1      -6.128   2.104   1.242  0.00  0.00    +0.002 C 
ATOM     15  C   UNL     1      -6.435   0.817   1.978  0.00  0.00    +0.008 C 
ATOM     16  C   UNL     1      -5.343   1.615   0.002  0.00  0.00    +0.091 C 
ATOM     17  C   UNL     1      -3.923   1.247   0.307  0.00  0.00    +0.226 C 
ATOM     18  O   UNL     1      -3.034   2.080   0.628  0.00  0.00    -0.275 OA
ATOM     19  N   UNL     1      -3.680  -0.147   0.205  0.00  0.00    -0.241 N 
ENDBRANCH   7  19
ENDBRANCH   1   7
BRANCH   6  20
ATOM     20  C   UNL     1       1.083  -0.043  -0.627  0.00  0.00    +0.088 C 
BRANCH  20  21
ATOM     21  N   UNL     1       2.431  -0.569  -0.311  0.00  0.00    -0.299 NA
ATOM     22  C   UNL     1       3.465   0.159  -1.077  0.00  0.00    +0.103 C 
ATOM     23  C   UNL     1       4.843  -0.455  -0.826  0.00  0.00    +0.122 C 
ATOM     24  N   UNL     1       5.102  -0.523   0.614  0.00  0.00    -0.312 N 
ATOM     25  C   UNL     1       4.063  -1.108   1.463  0.00  0.00    +0.122 C 
ATOM     26  C   UNL     1       2.713  -0.468   1.138  0.00  0.00    +0.103 C 
ATOM     27  C   UNL     1       6.455  -0.488   1.090  0.00  0.00    +0.138 A 
ATOM     28  N   UNL     1       7.015  -1.565   1.712  0.00  0.00    -0.194 NA
ATOM     29  S   UNL     1       8.573  -1.108   2.093  0.00  0.00    +0.014 S 
ATOM     30  C   UNL     1       8.556   0.442   1.492  0.00  0.00    +0.041 A 
ATOM     31  C   UNL     1       9.543   1.421   1.497  0.00  0.00    +0.017 A 
ATOM     32  C   UNL     1       9.225   2.671   0.943  0.00  0.00    +0.001 A 
ATOM     33  C   UNL     1       7.939   2.909   0.416  0.00  0.00    +0.001 A 
ATOM     34  C   UNL     1       6.961   1.898   0.431  0.00  0.00    +0.012 A 
ATOM     35  C   UNL     1       7.292   0.647   0.966  0.00  0.00    +0.031 A 
ENDBRANCH  20  21
ENDBRANCH   6  20
TORSDOF 4
