REMARK  Name = 
REMARK  20 active torsions:
REMARK  status: ('A' for Active; 'I' for Inactive)
REMARK    1  A    between atoms: C_8  and  O_9
REMARK    2  A    between atoms: C_14  and  C_15
REMARK    3  A    between atoms: C_14  and  O_16
REMARK    4  A    between atoms: C_17  and  O_18
REMARK    5  A    between atoms: C_19  and  O_20
REMARK    6  A    between atoms: C_23  and  C_24
REMARK    7  A    between atoms: N_26  and  C_27
REMARK    8  A    between atoms: C_27  and  N_28
REMARK    9  A    between atoms: N_28  and  C_29
REMARK   10  A    between atoms: C_29  and  C_30
REMARK   11  A    between atoms: C_30  and  C_31
REMARK   12  A    between atoms: C_31  and  C_32
REMARK   13  A    between atoms: C_32  and  C_33
REMARK   14  A    between atoms: C_33  and  N_34
REMARK   15  A    between atoms: C_33  and  C_35
REMARK   16  A    between atoms: C_35  and  O_36
REMARK   17  A    between atoms: C_38  and  O_39
REMARK   18  A    between atoms: C_40  and  N_41
REMARK   19  A    between atoms: N_41  and  C_42
REMARK   20  A    between atoms: N_41  and  C_43
REMARK                            x       y       z     vdW  Elec       q    Type
REMARK                         _______ _______ _______ _____ _____    ______ ____
ROOT
ATOM      1  C   UNK     1      -2.458  -1.177  -0.262  0.00  0.00    +0.061 C 
ATOM      2  C   UNK     1      -4.018  -1.170  -0.486  0.00  0.00    +0.020 C 
ATOM      3  C   UNK     1      -4.848  -0.991   0.808  0.00  0.00    +0.062 C 
ATOM      4  C   UNK     1      -4.219   0.120   1.631  0.00  0.00    +0.047 C 
ATOM      5  C   UNK     1      -5.009   1.331   1.918  0.00  0.00    +0.197 C 
ATOM      6  O   UNK     1      -4.810   1.991   2.972  0.00  0.00    -0.287 OA
ATOM      7  C   UNK     1      -6.072   1.710   0.965  0.00  0.00    +0.069 A 
ATOM      8  C   UNK     1      -6.445   3.060   0.738  0.00  0.00    +0.128 A 
ATOM      9  C   UNK     1      -7.504   3.348  -0.125  0.00  0.00    +0.046 A 
ATOM     10  C   UNK     1      -8.173   2.326  -0.794  0.00  0.00    +0.004 A 
ATOM     11  C   UNK     1      -7.786   0.999  -0.613  0.00  0.00    +0.007 A 
ATOM     12  C   UNK     1      -6.716   0.674   0.246  0.00  0.00    -0.001 A 
ATOM     13  C   UNK     1      -6.385  -0.789   0.543  0.00  0.00    +0.096 C 
ATOM     14  C   UNK     1      -7.204  -1.206   1.788  0.00  0.00    +0.047 C 
ATOM     15  C   UNK     1      -2.893   0.075   1.874  0.00  0.00    +0.141 C 
ATOM     16  C   UNK     1      -2.086  -1.065   1.260  0.00  0.00    +0.190 C 
ATOM     17  C   UNK     1      -0.600  -0.859   1.430  0.00  0.00    +0.211 C 
ATOM     18  O   UNK     1      -0.031  -1.324   2.460  0.00  0.00    -0.288 OA
ATOM     19  C   UNK     1       0.181  -0.062   0.463  0.00  0.00    +0.121 C 
ATOM     20  C   UNK     1      -0.386   0.373  -0.675  0.00  0.00    +0.127 C 
ATOM     21  C   UNK     1      -1.763  -0.070  -1.147  0.00  0.00    +0.129 C 
ENDROOT
BRANCH  19  22
ATOM     22  C   UNK     1       1.591   0.275   0.785  0.00  0.00    +0.252 C 
ATOM     23  O   UNK     1       1.900   0.586   1.967  0.00  0.00    -0.270 OA
ATOM     24  N   UNK     1       2.614   0.194  -0.220  0.00  0.00    -0.299 N 
ATOM     25  H   UNK     1       2.354  -0.134  -1.179  0.00  0.00    +0.150 HD
BRANCH  24  26
ATOM     26  C   UNK     1       4.037   0.188   0.114  0.00  0.00    +0.189 C 
BRANCH  26  27
ATOM     27  N   UNK     1       4.477  -1.196   0.327  0.00  0.00    -0.301 NA
ATOM     28  H   UNK     1       3.979  -1.557   1.175  0.00  0.00    +0.123 HD
BRANCH  27  29
ATOM     29  C   UNK     1       5.921  -1.276   0.588  0.00  0.00    +0.082 C 
BRANCH  29  30
ATOM     30  C   UNK     1       6.706  -1.361  -0.730  0.00  0.00    +0.015 C 
BRANCH  30  31
ATOM     31  C   UNK     1       8.213  -1.596  -0.500  0.00  0.00    +0.003 C 
BRANCH  31  32
ATOM     32  C   UNK     1       9.080  -0.328  -0.622  0.00  0.00    +0.030 C 
BRANCH  32  33
ATOM     33  C   UNK     1       8.833   0.705   0.499  0.00  0.00    +0.161 C 
BRANCH  33  34
ATOM     34  N   UNK     1       7.662   1.529   0.186  0.00  0.00    -0.318 NA
ATOM     35  H   UNK     1       7.507   2.205   0.969  0.00  0.00    +0.119 HD
ATOM     36  H   UNK     1       7.834   2.084  -0.684  0.00  0.00    +0.119 HD
ENDBRANCH  33  34
BRANCH  33  37
ATOM     37  C   UNK     1      10.056   1.564   0.706  0.00  0.00    +0.322 C 
ATOM     38  O   UNK     1      11.007   1.131   1.413  0.00  0.00    -0.249 OA
BRANCH  37  39
ATOM     39  O   UNK     1      10.161   2.814   0.097  0.00  0.00    -0.480 OA
ATOM     40  H   UNK     1      10.986   3.386   0.229  0.00  0.00    +0.295 HD
ENDBRANCH  37  39
ENDBRANCH  33  37
ENDBRANCH  32  33
ENDBRANCH  31  32
ENDBRANCH  30  31
ENDBRANCH  29  30
ENDBRANCH  27  29
ENDBRANCH  26  27
ENDBRANCH  24  26
ENDBRANCH  19  22
BRANCH  21  41
ATOM     41  N   UNK     1      -1.641  -0.438  -2.588  0.00  0.00    -0.299 NA
ATOM     42  C   UNK     1      -0.965  -1.717  -2.860  0.00  0.00    +0.105 C 
ATOM     43  C   UNK     1      -2.870  -0.300  -3.382  0.00  0.00    +0.105 C 
ENDBRANCH  21  41
BRANCH   8  44
ATOM     44  O   UNK     1      -5.769   4.137   1.317  0.00  0.00    -0.506 OA
ATOM     45  H   UNK     1      -4.886   4.049   1.800  0.00  0.00    +0.292 HD
ENDBRANCH   8  44
BRANCH  13  46
ATOM     46  O   UNK     1      -6.787  -1.592  -0.546  0.00  0.00    -0.384 OA
ATOM     47  H   UNK     1      -6.621  -2.541  -0.307  0.00  0.00    +0.211 HD
ENDBRANCH  13  46
BRANCH  15  48
ATOM     48  O   UNK     1      -2.290   1.089   2.628  0.00  0.00    -0.507 OA
ATOM     49  H   UNK     1      -1.302   1.111   2.849  0.00  0.00    +0.292 HD
ENDBRANCH  15  48
BRANCH  16  50
ATOM     50  O   UNK     1      -2.446  -2.254   1.930  0.00  0.00    -0.373 OA
ATOM     51  H   UNK     1      -1.945  -3.009   1.520  0.00  0.00    +0.211 HD
ENDBRANCH  16  50
BRANCH  20  52
ATOM     52  O   UNK     1       0.303   1.300  -1.463  0.00  0.00    -0.509 OA
ATOM     53  H   UNK     1      -0.106   1.698  -2.300  0.00  0.00    +0.292 HD
ENDBRANCH  20  52
TORSDOF 17
