REMARK  Name = 
REMARK  0 active torsions:
REMARK  status: ('A' for Active; 'I' for Inactive)
REMARK                            x       y       z     vdW  Elec       q    Type
REMARK                         _______ _______ _______ _____ _____    ______ ____
ROOT
ATOM      1 MG   UNL     1       0.000   0.000   0.000  0.00  0.00    +0.000 Mg
ENDROOT
TORSDOF 0
REMARK  Name = 
REMARK  0 active torsions:
REMARK  status: ('A' for Active; 'I' for Inactive)
REMARK                            x       y       z     vdW  Elec       q    Type
REMARK                         _______ _______ _______ _____ _____    ______ ____
ROOT
ATOM      1  O   UNL     1      -1.333  -0.938  -0.295  0.00  0.00    +0.000 OA
ATOM      2  S   UNL     1      -0.001   0.040   0.006  0.00  0.00    +0.000 S 
ATOM      3  O   UNL     1       1.393  -0.895   0.003  0.00  0.00    +0.000 OA
ATOM      4  O   UNL     1      -0.159   0.701   1.347  0.00  0.00    +0.000 OA
ATOM      5  O   UNL     1       0.099   1.092  -1.061  0.00  0.00    +0.000 OA
ENDROOT
TORSDOF 0
