REMARK  Name = 
REMARK  4 active torsions:
REMARK  status: ('A' for Active; 'I' for Inactive)
REMARK    1  A    between atoms: O_2  and  C_3
REMARK    2  A    between atoms: C_8  and  C_9
REMARK    3  A    between atoms: O_12  and  C_13
REMARK    4  A    between atoms: C_18  and  C_19
REMARK                            x       y       z     vdW  Elec       q    Type
REMARK                         _______ _______ _______ _____ _____    ______ ____
ROOT
ATOM      1 MG   UNL     1       0.000   0.000   0.000  0.00  0.00    +0.000 Mg
ENDROOT
TORSDOF 0
REMARK  Name = 
REMARK  4 active torsions:
REMARK  status: ('A' for Active; 'I' for Inactive)
REMARK    1  A    between atoms: O_2  and  C_3
REMARK    2  A    between atoms: C_8  and  C_9
REMARK    3  A    between atoms: O_12  and  C_13
REMARK    4  A    between atoms: C_18  and  C_19
REMARK                            x       y       z     vdW  Elec       q    Type
REMARK                         _______ _______ _______ _____ _____    ______ ____
ROOT
ATOM      1  C   UNL     1      -0.075  -0.996   0.304  0.00  0.00    +0.000 A 
ATOM      2  C   UNL     1       1.283  -1.124  -0.016  0.00  0.00    +0.000 A 
ATOM      3  C   UNL     1       2.009  -0.029  -0.487  0.00  0.00    +0.000 A 
ATOM      4  C   UNL     1       1.384   1.207  -0.643  0.00  0.00    +0.000 A 
ATOM      5  C   UNL     1       0.026   1.347  -0.349  0.00  0.00    +0.000 A 
ATOM      6  C   UNL     1      -0.727   0.248   0.107  0.00  0.00    +0.000 A 
ENDROOT
BRANCH   6   7
ATOM      7  C   UNL     1      -2.179   0.426   0.326  0.00  0.00    +0.000 C 
ATOM      8  O   UNL     1      -3.074  -0.595   0.031  0.00  0.00    +0.000 OA
ATOM      9  O   UNL     1      -2.627   1.534   0.725  0.00  0.00    +0.000 OA
ENDBRANCH   6   7
BRANCH   1  10
ATOM     10  O   UNL     1      -0.724  -2.108   0.844  0.00  0.00    +0.000 OA
ATOM     11  H   UNL     1      -1.643  -2.066   1.263  0.00  0.00    +0.000 HD
ENDBRANCH   1  10
TORSDOF 2
REMARK  Name = 
REMARK  4 active torsions:
REMARK  status: ('A' for Active; 'I' for Inactive)
REMARK    1  A    between atoms: O_2  and  C_3
REMARK    2  A    between atoms: C_8  and  C_9
REMARK    3  A    between atoms: O_12  and  C_13
REMARK    4  A    between atoms: C_18  and  C_19
REMARK                            x       y       z     vdW  Elec       q    Type
REMARK                         _______ _______ _______ _____ _____    ______ ____
ROOT
ATOM      1  C   UNL     1      -0.077  -0.995   0.305  0.00  0.00    +0.000 A 
ATOM      2  C   UNL     1       1.282  -1.126  -0.012  0.00  0.00    +0.000 A 
ATOM      3  C   UNL     1       2.010  -0.032  -0.483  0.00  0.00    +0.000 A 
ATOM      4  C   UNL     1       1.386   1.204  -0.642  0.00  0.00    +0.000 A 
ATOM      5  C   UNL     1       0.028   1.346  -0.351  0.00  0.00    +0.000 A 
ATOM      6  C   UNL     1      -0.727   0.249   0.105  0.00  0.00    +0.000 A 
ENDROOT
BRANCH   6   7
ATOM      7  C   UNL     1      -2.180   0.429   0.321  0.00  0.00    +0.000 C 
ATOM      8  O   UNL     1      -3.075  -0.592   0.026  0.00  0.00    +0.000 OA
ATOM      9  O   UNL     1      -2.627   1.538   0.718  0.00  0.00    +0.000 OA
ENDBRANCH   6   7
BRANCH   1  10
ATOM     10  O   UNL     1      -0.728  -2.105   0.846  0.00  0.00    +0.000 OA
ATOM     11  H   UNL     1      -1.647  -2.062   1.263  0.00  0.00    +0.000 HD
ENDBRANCH   1  10
TORSDOF 2
