REMARK  Name = 
REMARK  15 active torsions:
REMARK  status: ('A' for Active; 'I' for Inactive)
REMARK    1  A    between atoms: C_1  and  C_2
REMARK    2  A    between atoms: C_2  and  O_3
REMARK    3  A    between atoms: O_3  and  C_4
REMARK    4  A    between atoms: C_4  and  C_6
REMARK    5  A    between atoms: C_6  and  C_7
REMARK    6  A    between atoms: C_7  and  S_8
REMARK    7  A    between atoms: C_7  and  C_15
REMARK    8  A    between atoms: S_8  and  P_9
REMARK    9  A    between atoms: P_9  and  O_11
REMARK   10  A    between atoms: P_9  and  O_13
REMARK   11  A    between atoms: O_11  and  C_12
REMARK   12  A    between atoms: O_13  and  C_14
REMARK   13  A    between atoms: C_15  and  O_17
REMARK   14  A    between atoms: O_17  and  C_18
REMARK   15  A    between atoms: C_18  and  C_19
REMARK                            x       y       z     vdW  Elec       q    Type
REMARK                         _______ _______ _______ _____ _____    ______ ____
ROOT
ATOM      1  C   UNL     1      -0.681  -0.434   1.107  0.00  0.00    +0.174 C 
ENDROOT
BRANCH   1   2
ATOM      2  C   UNL     1      -0.288  -1.876   0.937  0.00  0.00    +0.321 C 
ATOM      3  O   UNL     1       0.095  -2.532   1.944  0.00  0.00    -0.250 OA
BRANCH   2   4
ATOM      4  O   UNL     1      -0.345  -2.482  -0.325  0.00  0.00    -0.464 OA
BRANCH   4   5
ATOM      5  C   UNL     1       0.005  -3.844  -0.560  0.00  0.00    +0.229 C 
ATOM      6  C   UNL     1      -1.105  -4.774  -0.086  0.00  0.00    +0.048 C 
ENDBRANCH   4   5
ENDBRANCH   2   4
ENDBRANCH   1   2
BRANCH   1   7
ATOM      7  C   UNL     1      -1.285   0.172  -0.176  0.00  0.00    +0.146 C 
BRANCH   7   8
ATOM      8  C   UNL     1      -1.693   1.601   0.020  0.00  0.00    +0.309 C 
ATOM      9  O   UNL     1      -1.259   2.490  -0.762  0.00  0.00    -0.251 OA
BRANCH   8  10
ATOM     10  O   UNL     1      -2.569   1.932   1.061  0.00  0.00    -0.465 OA
BRANCH  10  12
ATOM     11  C   UNL     1      -1.750   3.949   2.128  0.00  0.00    +0.048 C 
ATOM     12  C   UNL     1      -2.908   3.274   1.402  0.00  0.00    +0.229 C 
ENDBRANCH  10  12
ENDBRANCH   8  10
ENDBRANCH   7   8
ENDBRANCH   1   7
BRANCH   1  13
ATOM     13  S   UNL     1       0.702   0.557   1.821  0.00  0.00    -0.059 S 
BRANCH  13  14
ATOM     14  P   UNL     1       2.105   0.449   0.223  0.00  0.00    +0.229 P 
ATOM     15  S   UNL     1       3.631   0.945   0.889  0.00  0.00    +0.003 S 
BRANCH  14  16
ATOM     16  O   UNL     1       1.522   1.459  -1.041  0.00  0.00    -0.327 OA
ATOM     17  C   UNL     1       2.553   2.238  -1.597  0.00  0.00    +0.203 C 
ENDBRANCH  14  16
BRANCH  14  18
ATOM     18  O   UNL     1       2.235  -1.176  -0.284  0.00  0.00    -0.327 OA
ATOM     19  C   UNL     1       2.711  -1.209  -1.605  0.00  0.00    +0.203 C 
ENDBRANCH  14  18
ENDBRANCH  13  14
ENDBRANCH   1  13
TORSDOF 11
