REMARK  Name = 
REMARK  11 active torsions:
REMARK  status: ('A' for Active; 'I' for Inactive)
REMARK    1  A    between atoms: O_1  and  C_2
REMARK    2  A    between atoms: C_2  and  C_3
REMARK    3  A    between atoms: C_3  and  O_4
REMARK    4  A    between atoms: C_3  and  C_5
REMARK    5  A    between atoms: C_5  and  O_6
REMARK    6  A    between atoms: C_5  and  C_7
REMARK    7  A    between atoms: C_7  and  O_8
REMARK    8  A    between atoms: C_7  and  C_9
REMARK    9  A    between atoms: C_9  and  O_10
REMARK   10  A    between atoms: C_9  and  C_11
REMARK   11  A    between atoms: C_11  and  O_12
REMARK                            x       y       z     vdW  Elec       q    Type
REMARK                         _______ _______ _______ _____ _____    ______ ____
ROOT
ATOM      1  C   UNL     1       0.638  -0.560  -0.977  0.00  0.00    +0.176 C 
ENDROOT
BRANCH   1   2
ATOM      2  O   UNL     1       0.631  -1.965  -1.072  0.00  0.00    -0.386 OA
ATOM      3  H   UNL     1       0.403  -2.334  -0.181  0.00  0.00    +0.210 HD
ENDBRANCH   1   2
BRANCH   1   4
ATOM      4  C   UNL     1       1.518  -0.078   0.216  0.00  0.00    +0.171 C 
BRANCH   4   5
ATOM      5  O   UNL     1       1.554   1.325   0.287  0.00  0.00    -0.387 OA
ATOM      6  H   UNL     1       1.974   1.655  -0.550  0.00  0.00    +0.210 HD
ENDBRANCH   4   5
BRANCH   4   7
ATOM      7  C   UNL     1       2.950  -0.639   0.124  0.00  0.00    +0.189 C 
BRANCH   7   8
ATOM      8  O   UNL     1       3.709  -0.228   1.230  0.00  0.00    -0.392 OA
ATOM      9  H   UNL     1       4.037   0.687   1.028  0.00  0.00    +0.210 HD
ENDBRANCH   7   8
ENDBRANCH   4   7
ENDBRANCH   1   4
BRANCH   1  10
ATOM     10  C   UNL     1      -0.825  -0.013  -0.995  0.00  0.00    +0.176 C 
BRANCH  10  11
ATOM     11  O   UNL     1      -0.857   1.257  -1.601  0.00  0.00    -0.386 OA
ATOM     12  H   UNL     1      -0.510   1.918  -0.949  0.00  0.00    +0.210 HD
ENDBRANCH  10  11
BRANCH  10  13
ATOM     13  C   UNL     1      -1.552  -0.004   0.382  0.00  0.00    +0.171 C 
BRANCH  13  14
ATOM     14  O   UNL     1      -1.513  -1.291   0.943  0.00  0.00    -0.387 OA
ATOM     15  H   UNL     1      -1.637  -1.185   1.922  0.00  0.00    +0.210 HD
ENDBRANCH  13  14
BRANCH  13  16
ATOM     16  C   UNL     1      -3.024   0.426   0.247  0.00  0.00    +0.189 C 
BRANCH  16  17
ATOM     17  O   UNL     1      -3.119   1.794  -0.055  0.00  0.00    -0.392 OA
ATOM     18  H   UNL     1      -3.410   1.866  -1.001  0.00  0.00    +0.210 HD
ENDBRANCH  16  17
ENDBRANCH  13  16
ENDBRANCH  10  13
ENDBRANCH   1  10
TORSDOF 11
