REMARK  Name = 
REMARK  5 active torsions:
REMARK  status: ('A' for Active; 'I' for Inactive)
REMARK    1  A    between atoms: C_1  and  N_2
REMARK    2  A    between atoms: N_2  and  C_3
REMARK    3  A    between atoms: C_3  and  C_4
REMARK    4  A    between atoms: C_4  and  C_5
REMARK    5  A    between atoms: C_5  and  C_6
REMARK                            x       y       z     vdW  Elec       q    Type
REMARK                         _______ _______ _______ _____ _____    ______ ____
ROOT
ATOM      1  C   UNL     1      -0.253   0.490  -0.256  0.00  0.00    +0.021 C 
ATOM      2  C   UNL     1      -0.124   1.124  -1.687  0.00  0.00    +0.017 C 
ATOM      3  C   UNL     1      -1.517   1.182  -2.409  0.00  0.00    +0.014 C 
ATOM      4  C   UNL     1      -2.621   0.584  -1.501  0.00  0.00    +0.050 C 
ATOM      5  C   UNL     1      -2.161  -0.817  -1.139  0.00  0.00    -0.036 A 
ATOM      6  C   UNL     1      -2.909  -1.974  -1.375  0.00  0.00    +0.004 A 
ATOM      7  C   UNL     1      -2.427  -3.206  -0.922  0.00  0.00    +0.000 A 
ATOM      8  C   UNL     1      -1.217  -3.278  -0.219  0.00  0.00    +0.000 A 
ATOM      9  C   UNL     1      -0.467  -2.120   0.026  0.00  0.00    +0.005 A 
ATOM     10  C   UNL     1      -0.920  -0.882  -0.463  0.00  0.00    -0.033 A 
ATOM     11  C   UNL     1      -2.568   1.375  -0.208  0.00  0.00    -0.036 A 
ATOM     12  C   UNL     1      -3.645   2.088   0.324  0.00  0.00    +0.004 A 
ATOM     13  C   UNL     1      -3.488   2.760   1.540  0.00  0.00    +0.000 A 
ATOM     14  C   UNL     1      -2.265   2.712   2.223  0.00  0.00    +0.000 A 
ATOM     15  C   UNL     1      -1.183   1.997   1.694  0.00  0.00    +0.005 A 
ATOM     16  C   UNL     1      -1.325   1.332   0.464  0.00  0.00    -0.033 A 
ENDROOT
BRANCH   1  17
ATOM     17  C   UNL     1       1.112   0.460   0.492  0.00  0.00    +0.017 C 
BRANCH  17  18
ATOM     18  C   UNL     1       2.267  -0.172  -0.312  0.00  0.00    +0.016 C 
BRANCH  18  19
ATOM     19  C   UNL     1       3.463  -0.483   0.592  0.00  0.00    +0.080 C 
BRANCH  19  21
ATOM     20  C   UNL     1       5.657  -1.464   0.671  0.00  0.00    +0.101 C 
ATOM     21  N   UNL     1       4.553  -1.061  -0.202  0.00  0.00    -0.319 NA
ATOM     22  H   UNL     1       4.919  -0.318  -0.843  0.00  0.00    +0.122 HD
ENDBRANCH  19  21
ENDBRANCH  18  19
ENDBRANCH  17  18
ENDBRANCH   1  17
TORSDOF 4
