REMARK  Name = 
REMARK  11 active torsions:
REMARK  status: ('A' for Active; 'I' for Inactive)
REMARK    1  A    between atoms: C_6  and  N_8
REMARK    2  A    between atoms: C_9  and  C_10
REMARK    3  A    between atoms: C_13  and  C_14
REMARK    4  A    between atoms: C_14  and  C_15
REMARK    5  A    between atoms: C_14  and  C_16
REMARK    6  A    between atoms: N_17  and  C_18
REMARK    7  A    between atoms: C_18  and  C_19
REMARK    8  A    between atoms: C_19  and  C_20
REMARK    9  A    between atoms: C_20  and  N_21
REMARK   10  A    between atoms: C_20  and  C_32
REMARK   11  A    between atoms: C_22  and  C_24
REMARK                            x       y       z     vdW  Elec       q    Type
REMARK                         _______ _______ _______ _____ _____    ______ ____
ROOT
ATOM      1  C   UNL     1       0.870  -1.842  -0.119  0.00  0.00    +0.042 C 
ENDROOT
BRANCH   1   2
ATOM      2  C   UNL     1      -0.082  -0.650  -0.310  0.00  0.00    +0.087 C 
BRANCH   2  10
ATOM      3  C   UNL     1      -1.526  -0.970   1.734  0.00  0.00    +0.059 C 
ATOM      4  C   UNL     1      -1.887  -0.088   2.937  0.00  0.00    +0.020 C 
ATOM      5  C   UNL     1      -1.710   1.342   2.412  0.00  0.00    +0.020 C 
ATOM      6  C   UNL     1      -1.256   1.148   0.959  0.00  0.00    +0.059 C 
ATOM      7  C   UNL     1      -2.481   1.110   0.006  0.00  0.00    +0.044 C 
ATOM      8  C   UNL     1      -3.524  -0.004   0.343  0.00  0.00    +0.093 C 
ATOM      9  C   UNL     1      -2.794  -1.277   0.894  0.00  0.00    +0.044 C 
ATOM     10  N   UNL     1      -0.579  -0.144   0.989  0.00  0.00    -0.296 NA
BRANCH   8  11
ATOM     11  N   UNL     1      -4.435  -0.322  -0.808  0.00  0.00    -0.312 N 
ATOM     12  C   UNL     1      -5.173  -1.460  -1.009  0.00  0.00    +0.131 A 
ATOM     13  C   UNL     1      -5.299  -2.639  -0.091  0.00  0.00    +0.088 C 
ATOM     14  N   UNL     1      -5.968  -1.368  -2.087  0.00  0.00    -0.135 NA
ATOM     15  N   UNL     1      -5.814  -0.160  -2.580  0.00  0.00    -0.134 NA
ATOM     16  C   UNL     1      -4.918   0.488  -1.810  0.00  0.00    +0.136 A 
BRANCH  16  17
ATOM     17  C   UNL     1      -4.747   1.993  -1.959  0.00  0.00    +0.051 C 
ATOM     18  C   UNL     1      -5.209   2.479  -3.342  0.00  0.00    +0.015 C 
ATOM     19  C   UNL     1      -5.541   2.725  -0.869  0.00  0.00    +0.015 C 
ENDBRANCH  16  17
ENDBRANCH   8  11
ENDBRANCH   2  10
ENDBRANCH   1   2
BRANCH   1  20
ATOM     20  C   UNL     1       2.039  -1.527   0.838  0.00  0.00    +0.104 C 
BRANCH  20  21
ATOM     21  C   UNL     1       2.914  -2.747   1.021  0.00  0.00    -0.027 A 
ATOM     22  C   UNL     1       3.785  -3.172   0.000  0.00  0.00    +0.005 A 
ATOM     23  C   UNL     1       4.576  -4.311   0.175  0.00  0.00    +0.000 A 
ATOM     24  C   UNL     1       4.500  -5.042   1.363  0.00  0.00    +0.000 A 
ATOM     25  C   UNL     1       3.629  -4.637   2.377  0.00  0.00    +0.000 A 
ATOM     26  C   UNL     1       2.836  -3.498   2.208  0.00  0.00    +0.005 A 
ENDBRANCH  20  21
BRANCH  20  27
ATOM     27  N   UNL     1       2.837  -0.407   0.331  0.00  0.00    -0.308 N 
ATOM     28  C   UNL     1       3.550   0.485   1.201  0.00  0.00    +0.217 C 
ATOM     29  O   UNL     1       3.522   0.305   2.449  0.00  0.00    -0.275 OA
ATOM     30  H   UNL     1       2.950  -0.299  -0.702  0.00  0.00    +0.149 HD
BRANCH  28  31
ATOM     31  C   UNL     1       4.338   1.642   0.640  0.00  0.00    +0.075 C 
ATOM     32  C   UNL     1       3.398   2.647  -0.064  0.00  0.00    +0.018 C 
ATOM     33  C   UNL     1       4.207   3.645  -0.897  0.00  0.00    +0.076 C 
ATOM     34  C   UNL     1       5.018   2.952  -2.019  0.00  0.00    +0.249 C 
ATOM     35  F   UNL     1       6.238   3.596  -2.151  0.00  0.00    -0.206 F 
ATOM     36  F   UNL     1       4.335   3.078  -3.218  0.00  0.00    -0.206 F 
ATOM     37  C   UNL     1       5.268   1.452  -1.754  0.00  0.00    +0.076 C 
ATOM     38  C   UNL     1       5.504   1.159  -0.266  0.00  0.00    +0.018 C 
ENDBRANCH  28  31
ENDBRANCH  20  27
ENDBRANCH   1  20
TORSDOF 8
