REMARK  Name = 
REMARK  16 active torsions:
REMARK  status: ('A' for Active; 'I' for Inactive)
REMARK    1  A    between atoms: C_1  and  N_2
REMARK    2  A    between atoms: C_3  and  C_5
REMARK    3  A    between atoms: C_5  and  N_6
REMARK    4  A    between atoms: C_5  and  C_20
REMARK    5  A    between atoms: C_7  and  C_9
REMARK    6  A    between atoms: C_9  and  C_10
REMARK    7  A    between atoms: C_9  and  C_14
REMARK    8  A    between atoms: C_10  and  C_11
REMARK    9  A    between atoms: C_11  and  C_12
REMARK   10  A    between atoms: C_11  and  C_13
REMARK   11  A    between atoms: C_14  and  O_15
REMARK   12  A    between atoms: C_14  and  C_16
REMARK   13  A    between atoms: N_18  and  O_19
REMARK   14  A    between atoms: C_20  and  C_21
REMARK   15  A    between atoms: C_20  and  C_22
REMARK   16  A    between atoms: C_20  and  C_23
REMARK                            x       y       z     vdW  Elec       q    Type
REMARK                         _______ _______ _______ _____ _____    ______ ____
ROOT
ATOM      1  N   UNL     1      -0.652  -0.555   0.289  0.00  0.00    -0.303 N 
ATOM      2  C   UNL     1       0.383   0.317  -0.187  0.00  0.00    +0.220 C 
ATOM      3  O   UNL     1       0.178   1.562  -0.242  0.00  0.00    -0.275 OA
ATOM      4  H   UNL     1      -0.422  -1.562   0.440  0.00  0.00    +0.149 HD
ENDROOT
BRANCH   1   5
ATOM      5  C   UNL     1      -2.043  -0.119   0.464  0.00  0.00    +0.164 C 
BRANCH   5   8
ATOM      6  C   UNL     1      -3.571  -0.038   4.049  0.00  0.00    +0.128 C 
ATOM      7  N   UNL     1      -2.840   0.350   2.848  0.00  0.00    -0.317 N 
ATOM      8  C   UNL     1      -2.554  -0.596   1.809  0.00  0.00    +0.234 C 
ATOM      9  O   UNL     1      -2.670  -1.833   2.046  0.00  0.00    -0.274 OA
ATOM     10  H   UNL     1      -2.525   1.336   2.748  0.00  0.00    +0.148 HD
ENDBRANCH   5   8
BRANCH   5  11
ATOM     11  C   UNL     1      -2.936  -0.540  -0.759  0.00  0.00    -0.011 C 
ATOM     12  C   UNL     1      -2.397   0.125  -2.047  0.00  0.00    +0.013 C 
ATOM     13  C   UNL     1      -4.383  -0.046  -0.540  0.00  0.00    +0.013 C 
ATOM     14  C   UNL     1      -2.953  -2.069  -0.987  0.00  0.00    +0.013 C 
ENDBRANCH   5  11
ENDBRANCH   1   5
BRANCH   2  15
ATOM     15  C   UNL     1       1.717  -0.244  -0.617  0.00  0.00    +0.113 C 
BRANCH  15  16
ATOM     16  C   UNL     1       2.873   0.394   0.198  0.00  0.00    +0.018 C 
BRANCH  16  17
ATOM     17  C   UNL     1       2.944  -0.129   1.653  0.00  0.00    -0.016 C 
ATOM     18  C   UNL     1       3.686  -1.475   1.721  0.00  0.00    +0.007 C 
ATOM     19  C   UNL     1       3.639   0.899   2.555  0.00  0.00    +0.007 C 
ENDBRANCH  16  17
ENDBRANCH  15  16
BRANCH  15  20
ATOM     20  C   UNL     1       1.906  -0.126  -2.152  0.00  0.00    +0.214 C 
BRANCH  20  21
ATOM     21  C   UNL     1       1.899   1.303  -2.645  0.00  0.00    +0.265 C 
ATOM     22  O   UNL     1       0.848   1.775  -3.157  0.00  0.00    -0.271 OA
ATOM     23  N   UNL     1       3.054   2.138  -2.509  0.00  0.00    -0.195 N 
ATOM     24  H   UNL     1       3.954   1.743  -2.152  0.00  0.00    +0.182 HD
BRANCH  23  25
ATOM     25  O   UNL     1       2.996   3.449  -2.836  0.00  0.00    -0.295 OA
ATOM     26  H   UNL     1       2.730   3.908  -2.002  0.00  0.00    +0.241 HD
ENDBRANCH  23  25
ENDBRANCH  20  21
BRANCH  20  27
ATOM     27  O   UNL     1       3.099  -0.763  -2.539  0.00  0.00    -0.382 OA
ATOM     28  H   UNL     1       3.022  -0.959  -3.511  0.00  0.00    +0.210 HD
ENDBRANCH  20  27
ENDBRANCH  15  20
ENDBRANCH   2  15
TORSDOF 10
