REMARK  Name = 
REMARK  11 active torsions:
REMARK  status: ('A' for Active; 'I' for Inactive)
REMARK    1  A    between atoms: C_1  and  C_2
REMARK    2  A    between atoms: C_2  and  C_3
REMARK    3  A    between atoms: C_2  and  C_12
REMARK    4  A    between atoms: C_3  and  C_4
REMARK    5  A    between atoms: C_6  and  O_7
REMARK    6  A    between atoms: C_8  and  O_9
REMARK    7  A    between atoms: C_12  and  C_13
REMARK    8  A    between atoms: C_12  and  C_14
REMARK    9  A    between atoms: C_14  and  C_15
REMARK   10  A    between atoms: C_17  and  O_18
REMARK   11  A    between atoms: C_19  and  O_20
REMARK                            x       y       z     vdW  Elec       q    Type
REMARK                         _______ _______ _______ _____ _____    ______ ____
ROOT
ATOM      1  C   UNL     1      -0.893  -1.141   1.474  0.00  0.00    +0.008 C 
ATOM      2  C   UNL     1      -0.731  -0.807  -0.022  0.00  0.00    -0.007 C 
ENDROOT
BRANCH   2   3
ATOM      3  C   UNL     1       0.764  -0.679  -0.461  0.00  0.00    -0.007 C 
ATOM      4  C   UNL     1       1.461  -2.053  -0.478  0.00  0.00    +0.008 C 
BRANCH   3   5
ATOM      5  C   UNL     1       1.565   0.338   0.392  0.00  0.00    +0.038 C 
BRANCH   5   6
ATOM      6  C   UNL     1       2.896   0.673  -0.235  0.00  0.00    -0.043 A 
ATOM      7  C   UNL     1       4.076   0.068   0.227  0.00  0.00    +0.052 A 
ATOM      8  C   UNL     1       5.307   0.362  -0.370  0.00  0.00    +0.158 A 
ATOM      9  C   UNL     1       5.365   1.267  -1.443  0.00  0.00    +0.158 A 
ATOM     10  C   UNL     1       4.188   1.869  -1.909  0.00  0.00    +0.049 A 
ATOM     11  C   UNL     1       2.960   1.572  -1.311  0.00  0.00    +0.007 A 
BRANCH   8  12
ATOM     12  O   UNL     1       6.459  -0.256   0.115  0.00  0.00    -0.503 OA
ATOM     13  H   UNL     1       7.373  -0.078  -0.283  0.00  0.00    +0.292 HD
ENDBRANCH   8  12
BRANCH   9  14
ATOM     14  O   UNL     1       6.588   1.565  -2.042  0.00  0.00    -0.503 OA
ATOM     15  H   UNL     1       6.655   2.214  -2.817  0.00  0.00    +0.292 HD
ENDBRANCH   9  14
ENDBRANCH   5   6
ENDBRANCH   3   5
ENDBRANCH   2   3
BRANCH   2  16
ATOM     16  C   UNL     1      -1.542   0.459  -0.399  0.00  0.00    +0.038 C 
BRANCH  16  17
ATOM     17  C   UNL     1      -3.030   0.217  -0.333  0.00  0.00    -0.043 A 
ATOM     18  C   UNL     1      -3.772   0.636   0.784  0.00  0.00    +0.052 A 
ATOM     19  C   UNL     1      -5.151   0.390   0.854  0.00  0.00    +0.158 A 
ATOM     20  C   UNL     1      -5.795  -0.282  -0.199  0.00  0.00    +0.158 A 
ATOM     21  C   UNL     1      -5.055  -0.704  -1.309  0.00  0.00    +0.049 A 
ATOM     22  C   UNL     1      -3.682  -0.459  -1.376  0.00  0.00    +0.007 A 
BRANCH  19  23
ATOM     23  O   UNL     1      -5.881   0.810   1.965  0.00  0.00    -0.503 OA
ATOM     24  H   UNL     1      -5.440   1.296   2.737  0.00  0.00    +0.292 HD
ENDBRANCH  19  23
BRANCH  20  25
ATOM     25  O   UNL     1      -7.165  -0.540  -0.159  0.00  0.00    -0.503 OA
ATOM     26  H   UNL     1      -7.743  -0.256   0.622  0.00  0.00    +0.292 HD
ENDBRANCH  20  25
ENDBRANCH  16  17
ENDBRANCH   2  16
TORSDOF 9
