REMARK  Name = 
REMARK  2 active torsions:
REMARK  status: ('A' for Active; 'I' for Inactive)
REMARK    1  A    between atoms: O_1  and  C_2
REMARK    2  A    between atoms: C_2  and  C_14
REMARK                            x       y       z     vdW  Elec       q    Type
REMARK                         _______ _______ _______ _____ _____    ______ ____
ROOT
ATOM      1  C   UNL     1       0.111  -0.153   0.694  0.00  0.00    +0.188 C 
ATOM      2  N   UNL     1      -0.763  -1.223   0.189  0.00  0.00    -0.278 N 
ATOM      3  C   UNL     1      -1.098  -2.511   0.774  0.00  0.00    +0.133 C 
ATOM      4  C   UNL     1      -2.591  -2.682   0.418  0.00  0.00    +0.162 C 
ATOM      5  N   UNL     1      -3.021  -1.371  -0.064  0.00  0.00    -0.267 NA
ATOM      6  C   UNL     1      -1.969  -0.656  -0.246  0.00  0.00    +0.127 C 
ATOM      7  C   UNL     1      -1.899   0.780  -0.209  0.00  0.00    +0.022 A 
ATOM      8  C   UNL     1      -2.840   1.750  -0.546  0.00  0.00    +0.012 A 
ATOM      9  C   UNL     1      -2.493   3.098  -0.355  0.00  0.00    +0.001 A 
ATOM     10  C   UNL     1      -1.234   3.441   0.181  0.00  0.00    +0.000 A 
ATOM     11  C   UNL     1      -0.314   2.439   0.536  0.00  0.00    +0.009 A 
ATOM     12  C   UNL     1      -0.669   1.102   0.332  0.00  0.00    +0.017 A 
ENDROOT
BRANCH   1  13
ATOM     13  C   UNL     1       1.463  -0.238  -0.004  0.00  0.00    +0.007 A 
ATOM     14  C   UNL     1       1.604   0.176  -1.345  0.00  0.00    +0.010 A 
ATOM     15  C   UNL     1       2.830   0.052  -2.003  0.00  0.00    +0.020 A 
ATOM     16  C   UNL     1       3.927  -0.508  -1.343  0.00  0.00    +0.041 A 
ATOM     17 CL   UNL     1       5.465  -0.666  -2.173  0.00  0.00    -0.084 Cl
ATOM     18  C   UNL     1       3.794  -0.954  -0.026  0.00  0.00    +0.020 A 
ATOM     19  C   UNL     1       2.569  -0.832   0.636  0.00  0.00    +0.010 A 
ENDBRANCH   1  13
BRANCH   1  20
ATOM     20  O   UNL     1       0.228  -0.250   2.094  0.00  0.00    -0.364 OA
ATOM     21  H   UNL     1       0.764   0.528   2.403  0.00  0.00    +0.213 HD
ENDBRANCH   1  20
TORSDOF 2
