REMARK  Name = 
REMARK  4 active torsions:
REMARK  status: ('A' for Active; 'I' for Inactive)
REMARK    1  A    between atoms: C_1  and  O_2
REMARK    2  A    between atoms: O_2  and  C_3
REMARK    3  A    between atoms: C_12  and  C_15
REMARK    4  A    between atoms: C_15  and  C_17
REMARK                            x       y       z     vdW  Elec       q    Type
REMARK                         _______ _______ _______ _____ _____    ______ ____
ROOT
ATOM      1  C   UNL     1       5.070   0.523   0.675  0.00  0.00    +0.406 C 
ATOM      2  O   UNL     1       5.189   0.972  -0.498  0.00  0.00    -0.226 OA
ATOM      3  N   UNL     1       3.803   0.055   1.155  0.00  0.00    -0.221 N 
ATOM      4  C   UNL     1       2.598   0.054   0.376  0.00  0.00    +0.203 A 
ATOM      5  N   UNL     1       2.529   0.497  -0.908  0.00  0.00    -0.214 NA
ATOM      6  C   UNL     1       1.234   0.305  -1.215  0.00  0.00    +0.091 A 
ATOM      7  C   UNL     1       0.567  -0.229  -0.154  0.00  0.00    +0.068 A 
ATOM      8  N   UNL     1       1.417  -0.397   0.865  0.00  0.00    -0.326 N 
ATOM      9  C   UNL     1      -0.791  -0.533  -0.206  0.00  0.00    +0.039 A 
ATOM     10  C   UNL     1      -1.486  -0.259  -1.409  0.00  0.00    +0.024 A 
ATOM     11  C   UNL     1      -0.778   0.286  -2.515  0.00  0.00    +0.014 A 
ATOM     12  C   UNL     1       0.596   0.577  -2.420  0.00  0.00    +0.030 A 
ATOM     13  H   UNL     1       3.756  -0.307   2.134  0.00  0.00    +0.161 HD
ATOM     14  H   UNL     1       1.217  -0.785   1.814  0.00  0.00    +0.169 HD
ENDROOT
BRANCH   1  16
ATOM     15  C   UNL     1       7.470   0.919   1.130  0.00  0.00    +0.282 C 
ATOM     16  O   UNL     1       6.178   0.475   1.526  0.00  0.00    -0.453 OA
ENDBRANCH   1  16
BRANCH  10  17
ATOM     17  C   UNL     1      -2.929  -0.575  -1.540  0.00  0.00    +0.193 C 
ATOM     18  O   UNL     1      -3.374  -0.928  -2.666  0.00  0.00    -0.287 OA
BRANCH  17  19
ATOM     19  C   UNL     1      -3.867  -0.492  -0.395  0.00  0.00    +0.022 A 
ATOM     20  C   UNL     1      -3.700   0.480   0.610  0.00  0.00    +0.012 A 
ATOM     21  C   UNL     1      -4.603   0.557   1.675  0.00  0.00    +0.001 A 
ATOM     22  C   UNL     1      -5.685  -0.324   1.743  0.00  0.00    +0.000 A 
ATOM     23  C   UNL     1      -5.870  -1.281   0.743  0.00  0.00    +0.001 A 
ATOM     24  C   UNL     1      -4.970  -1.362  -0.325  0.00  0.00    +0.012 A 
ENDBRANCH  17  19
ENDBRANCH  10  17
TORSDOF 3
