REMARK  Name = 
REMARK  5 active torsions:
REMARK  status: ('A' for Active; 'I' for Inactive)
REMARK    1  A    between atoms: C_1  and  N_2
REMARK    2  A    between atoms: N_2  and  C_3
REMARK    3  A    between atoms: C_3  and  C_4
REMARK    4  A    between atoms: C_10  and  C_11
REMARK    5  A    between atoms: C_10  and  C_12
REMARK                            x       y       z     vdW  Elec       q    Type
REMARK                         _______ _______ _______ _____ _____    ______ ____
ROOT
ATOM      1  C   UNL     1       0.579  -0.513   0.237  0.00  0.00    +0.024 C 
ATOM      2  C   UNL     1       1.570  -0.591   1.445  0.00  0.00    +0.028 C 
ATOM      3  C   UNL     1      -0.650  -1.425   0.600  0.00  0.00    +0.010 C 
ATOM      4  C   UNL     1      -1.577  -1.673  -0.609  0.00  0.00    +0.005 C 
ATOM      5  C   UNL     1      -2.254  -0.310  -0.806  0.00  0.00    +0.004 C 
ATOM      6  C   UNL     1      -1.642   0.548   0.326  0.00  0.00    -0.003 C 
ATOM      7  C   UNL     1      -1.535  -0.499   1.413  0.00  0.00    +0.009 C 
ATOM      8  C   UNL     1      -0.141   0.911   0.043  0.00  0.00    -0.014 C 
ATOM      9  C   UNL     1       0.021   1.595  -1.348  0.00  0.00    +0.013 C 
ATOM     10  C   UNL     1       0.313   1.984   1.075  0.00  0.00    +0.013 C 
ENDROOT
BRANCH   1  12
ATOM     11  C   UNL     1       2.608  -0.493  -1.228  0.00  0.00    +0.101 C 
ATOM     12  N   UNL     1       1.268  -1.043  -0.976  0.00  0.00    -0.313 NA
ATOM     13  H   UNL     1       0.708  -0.928  -1.845  0.00  0.00    +0.122 HD
ENDBRANCH   1  12
TORSDOF 1
