REMARK  Name = 
REMARK  5 active torsions:
REMARK  status: ('A' for Active; 'I' for Inactive)
REMARK    1  A    between atoms: C_1  and  N_2
REMARK    2  A    between atoms: N_2  and  C_3
REMARK    3  A    between atoms: N_2  and  C_6
REMARK    4  A    between atoms: C_3  and  C_4
REMARK    5  A    between atoms: C_6  and  C_7
REMARK                            x       y       z     vdW  Elec       q    Type
REMARK                         _______ _______ _______ _____ _____    ______ ____
ROOT
ATOM      1  C   UNL     1      -0.681   1.731   0.353  0.00  0.00    +0.105 C 
ATOM      2  N   UNL     1      -0.019   0.418   0.243  0.00  0.00    -0.303 NA
ENDROOT
BRANCH   2   3
ATOM      3  C   UNL     1       1.222   0.542  -0.552  0.00  0.00    +0.100 C 
BRANCH   3   4
ATOM      4  C   UNL     1       2.236  -0.519  -0.121  0.00  0.00    +0.124 C 
ATOM      5 CL   UNL     1       3.752  -0.329  -1.039  0.00  0.00    -0.124 Cl
ENDBRANCH   3   4
ENDBRANCH   2   3
BRANCH   2   6
ATOM      6  C   UNL     1      -0.942  -0.582  -0.342  0.00  0.00    +0.100 C 
BRANCH   6   7
ATOM      7  C   UNL     1      -1.752  -1.261   0.761  0.00  0.00    +0.124 C 
ATOM      8 CL   UNL     1      -2.799  -2.525   0.065  0.00  0.00    -0.124 Cl
ENDBRANCH   6   7
ENDBRANCH   2   6
TORSDOF 4
