REMARK  Name = 
REMARK  5 active torsions:
REMARK  status: ('A' for Active; 'I' for Inactive)
REMARK    1  A    between atoms: C_1  and  C_2
REMARK    2  A    between atoms: C_5  and  N_6
REMARK    3  A    between atoms: N_6  and  C_7
REMARK    4  A    between atoms: C_12  and  C_13
REMARK    5  A    between atoms: C_13  and  O_14
REMARK                            x       y       z     vdW  Elec       q    Type
REMARK                         _______ _______ _______ _____ _____    ______ ____
ROOT
ATOM      1  N   UNL     1      -0.141  -0.314   1.610  0.00  0.00    -0.312 N 
ATOM      2  H   UNL     1      -0.032  -0.535   2.626  0.00  0.00    +0.152 HD
ENDROOT
BRANCH   1   7
ATOM      3  C   UNL     1       2.849  -0.804  -2.416  0.00  0.00    +0.045 C 
ATOM      4  C   UNL     1       2.510  -0.189  -1.085  0.00  0.00    -0.030 A 
ATOM      5  C   UNL     1       1.350  -0.578  -0.378  0.00  0.00    +0.066 A 
ATOM      6 CL   UNL     1       0.343  -1.880  -1.023  0.00  0.00    -0.081 Cl
ATOM      7  C   UNL     1       1.050   0.024   0.871  0.00  0.00    +0.069 A 
ATOM      8  C   UNL     1       1.954   0.953   1.422  0.00  0.00    +0.064 A 
ATOM      9 CL   UNL     1       1.645   1.711   2.980  0.00  0.00    -0.082 Cl
ATOM     10  C   UNL     1       3.103   1.319   0.721  0.00  0.00    +0.022 A 
ATOM     11  C   UNL     1       3.376   0.761  -0.525  0.00  0.00    +0.006 A 
ENDBRANCH   1   7
BRANCH   1  12
ATOM     12  C   UNL     1      -1.448  -0.479   1.030  0.00  0.00    +0.045 A 
ATOM     13  C   UNL     1      -2.212  -1.587   1.428  0.00  0.00    +0.024 A 
ATOM     14  C   UNL     1      -3.439  -1.860   0.824  0.00  0.00    +0.002 A 
ATOM     15  C   UNL     1      -3.924  -1.024  -0.181  0.00  0.00    +0.001 A 
ATOM     16  C   UNL     1      -3.195   0.102  -0.566  0.00  0.00    +0.017 A 
ATOM     17  C   UNL     1      -1.967   0.407   0.048  0.00  0.00    +0.080 A 
BRANCH  17  18
ATOM     18  C   UNL     1      -1.302   1.676  -0.315  0.00  0.00    +0.339 C 
ATOM     19  O   UNL     1      -0.688   2.348   0.556  0.00  0.00    -0.245 OA
BRANCH  18  20
ATOM     20  O   UNL     1      -1.401   2.165  -1.615  0.00  0.00    -0.477 OA
ATOM     21  H   UNL     1      -0.964   3.042  -1.874  0.00  0.00    +0.295 HD
ENDBRANCH  18  20
ENDBRANCH  17  18
ENDBRANCH   1  12
TORSDOF 4
