REMARK  Name = 
REMARK  6 active torsions:
REMARK  status: ('A' for Active; 'I' for Inactive)
REMARK    1  A    between atoms: C_1  and  C_2
REMARK    2  A    between atoms: C_4  and  C_5
REMARK    3  A    between atoms: C_5  and  N_6
REMARK    4  A    between atoms: N_9  and  C_12
REMARK    5  A    between atoms: C_12  and  C_13
REMARK    6  A    between atoms: C_12  and  C_19
REMARK                            x       y       z     vdW  Elec       q    Type
REMARK                         _______ _______ _______ _____ _____    ______ ____
ROOT
ATOM      1  N   UNL     1       1.828   0.925  -0.516  0.00  0.00    -0.296 NA
ATOM      2  C   UNL     1       0.822   1.991  -0.347  0.00  0.00    +0.100 C 
ATOM      3  C   UNL     1      -0.386   1.518   0.471  0.00  0.00    +0.100 C 
ATOM      4  N   UNL     1      -1.024   0.351  -0.181  0.00  0.00    -0.289 NA
ATOM      5  C   UNL     1      -0.029  -0.745  -0.256  0.00  0.00    +0.100 C 
ATOM      6  C   UNL     1       1.209  -0.305  -1.055  0.00  0.00    +0.100 C 
ENDROOT
BRANCH   1   7
ATOM      7  C   UNL     1       2.618   0.692   0.714  0.00  0.00    +0.119 C 
BRANCH   7  11
ATOM      8  C   UNL     1       7.145   0.708  -1.496  0.00  0.00    +0.044 C 
ATOM      9  C   UNL     1       6.106   0.007  -0.672  0.00  0.00    -0.050 A 
ATOM     10  C   UNL     1       4.902   0.655  -0.353  0.00  0.00    +0.008 A 
ATOM     11  C   UNL     1       3.910  -0.010   0.386  0.00  0.00    -0.033 A 
ATOM     12  C   UNL     1       4.123  -1.338   0.789  0.00  0.00    +0.005 A 
ATOM     13  C   UNL     1       5.313  -1.990   0.458  0.00  0.00    +0.001 A 
ATOM     14  C   UNL     1       6.299  -1.325  -0.275  0.00  0.00    +0.003 A 
ENDBRANCH   7  11
ENDBRANCH   1   7
BRANCH   4  15
ATOM     15  C   UNL     1      -2.239  -0.081   0.569  0.00  0.00    +0.117 C 
BRANCH  15  16
ATOM     16  C   UNL     1      -2.910  -1.289  -0.068  0.00  0.00    -0.026 A 
ATOM     17  C   UNL     1      -3.403  -2.325   0.745  0.00  0.00    +0.007 A 
ATOM     18  C   UNL     1      -4.055  -3.423   0.176  0.00  0.00    +0.020 A 
ATOM     19  C   UNL     1      -4.231  -3.494  -1.209  0.00  0.00    +0.041 A 
ATOM     20 CL   UNL     1      -5.049  -4.873  -1.920  0.00  0.00    -0.084 Cl
ATOM     21  C   UNL     1      -3.757  -2.464  -2.026  0.00  0.00    +0.020 A 
ATOM     22  C   UNL     1      -3.106  -1.364  -1.460  0.00  0.00    +0.007 A 
ENDBRANCH  15  16
BRANCH  15  23
ATOM     23  C   UNL     1      -3.283   1.021   0.658  0.00  0.00    -0.026 A 
ATOM     24  C   UNL     1      -3.994   1.216   1.856  0.00  0.00    +0.005 A 
ATOM     25  C   UNL     1      -4.983   2.201   1.940  0.00  0.00    +0.000 A 
ATOM     26  C   UNL     1      -5.280   2.993   0.829  0.00  0.00    +0.000 A 
ATOM     27  C   UNL     1      -4.591   2.799  -0.371  0.00  0.00    +0.000 A 
ATOM     28  C   UNL     1      -3.602   1.816  -0.461  0.00  0.00    +0.005 A 
ENDBRANCH  15  23
ENDBRANCH   4  15
TORSDOF 5
