REMARK  Name = 
REMARK  6 active torsions:
REMARK  status: ('A' for Active; 'I' for Inactive)
REMARK    1  A    between atoms: C_4  and  C_5
REMARK    2  A    between atoms: C_5  and  C_6
REMARK    3  A    between atoms: C_8  and  C_9
REMARK    4  A    between atoms: C_11  and  O_12
REMARK    5  A    between atoms: C_16  and  C_17
REMARK    6  A    between atoms: C_24  and  C_25
REMARK                            x       y       z     vdW  Elec       q    Type
REMARK                         _______ _______ _______ _____ _____    ______ ____
ROOT
ATOM      1  C   UNL     1       1.331  -0.536   0.771  0.00  0.00    -0.001 C 
ATOM      2  C   UNL     1       2.095  -0.478   2.092  0.00  0.00    +0.005 C 
ATOM      3  C   UNL     1       3.580  -0.510   1.681  0.00  0.00    +0.012 C 
ATOM      4  C   UNL     1       3.599  -0.450   0.133  0.00  0.00    +0.061 C 
ATOM      5  C   UNL     1       2.236   0.182  -0.235  0.00  0.00    -0.017 C 
ATOM      6  C   UNL     1       2.303   1.731  -0.027  0.00  0.00    +0.012 C 
ATOM      7  C   UNL     1       1.729  -0.164  -1.655  0.00  0.00    +0.039 C 
ATOM      8  C   UNL     1       0.231   0.209  -1.857  0.00  0.00    +0.119 C 
ATOM      9  C   UNL     1      -0.706  -0.321  -0.707  0.00  0.00    +0.031 C 
ATOM     10  C   UNL     1      -0.135  -0.052   0.726  0.00  0.00    -0.000 C 
ATOM     11  C   UNL     1      -0.972  -0.818   1.765  0.00  0.00    +0.011 C 
ATOM     12  C   UNL     1      -2.441  -0.377   1.750  0.00  0.00    +0.013 C 
ATOM     13  C   UNL     1      -3.195  -1.146   2.853  0.00  0.00    +0.012 C 
ATOM     14  C   UNL     1      -3.031  -0.519   0.341  0.00  0.00    -0.057 C 
ATOM     15  C   UNL     1      -4.326  -0.887   0.172  0.00  0.00    +0.046 C 
ATOM     16  C   UNL     1      -4.992  -0.866  -1.138  0.00  0.00    +0.156 C 
ATOM     17  O   UNL     1      -6.195  -1.228  -1.228  0.00  0.00    -0.293 OA
ATOM     18  C   UNL     1      -4.285  -0.359  -2.352  0.00  0.00    +0.080 C 
ATOM     19  C   UNL     1      -2.773  -0.515  -2.191  0.00  0.00    +0.019 C 
ATOM     20  C   UNL     1      -2.236   0.071  -0.844  0.00  0.00    -0.005 C 
ATOM     21  C   UNL     1      -2.462   1.607  -0.829  0.00  0.00    +0.016 C 
ENDROOT
BRANCH   4  22
ATOM     22  C   UNL     1       4.807   0.218  -0.505  0.00  0.00    +0.134 C 
ATOM     23  C   UNL     1       5.780   1.065   0.267  0.00  0.00    +0.086 C 
ATOM     24  O   UNL     1       5.014   0.028  -1.694  0.00  0.00    -0.297 OA
ENDBRANCH   4  22
BRANCH   8  25
ATOM     25  O   UNL     1       0.104   1.595  -2.015  0.00  0.00    -0.391 OA
ATOM     26  H   UNL     1       0.452   1.824  -2.917  0.00  0.00    +0.210 HD
ENDBRANCH   8  25
TORSDOF 2
