REMARK  Name = 
REMARK  6 active torsions:
REMARK  status: ('A' for Active; 'I' for Inactive)
REMARK    1  A    between atoms: C_4  and  O_5
REMARK    2  A    between atoms: C_4  and  C_6
REMARK    3  A    between atoms: C_6  and  C_7
REMARK    4  A    between atoms: C_9  and  C_10
REMARK    5  A    between atoms: C_16  and  C_17
REMARK    6  A    between atoms: C_24  and  C_25
REMARK                            x       y       z     vdW  Elec       q    Type
REMARK                         _______ _______ _______ _____ _____    ______ ____
ROOT
ATOM      1  C   UNL     1       1.135  -0.773  -0.820  0.00  0.00    +0.002 C 
ATOM      2  C   UNL     1       2.032  -2.000  -0.716  0.00  0.00    +0.008 C 
ATOM      3  C   UNL     1       3.438  -1.499  -1.086  0.00  0.00    +0.043 C 
ATOM      4  C   UNL     1       3.322   0.023  -1.360  0.00  0.00    +0.129 C 
ATOM      5  C   UNL     1       2.057   0.417  -0.530  0.00  0.00    +0.007 C 
ATOM      6  C   UNL     1       2.442   0.554   0.984  0.00  0.00    +0.015 C 
ATOM      7  C   UNL     1       1.306   1.690  -0.986  0.00  0.00    +0.010 C 
ATOM      8  C   UNL     1      -0.003   1.867  -0.199  0.00  0.00    +0.005 C 
ATOM      9  C   UNL     1      -0.924   0.595  -0.211  0.00  0.00    +0.002 C 
ATOM     10  C   UNL     1      -0.177  -0.759  -0.001  0.00  0.00    -0.003 C 
ATOM     11  C   UNL     1      -1.111  -1.874  -0.482  0.00  0.00    +0.011 C 
ATOM     12  C   UNL     1      -2.426  -1.943   0.320  0.00  0.00    +0.013 C 
ATOM     13  C   UNL     1      -3.410  -2.823  -0.472  0.00  0.00    +0.012 C 
ATOM     14  C   UNL     1      -3.025  -0.573   0.673  0.00  0.00    -0.057 C 
ATOM     15  C   UNL     1      -4.268  -0.515   1.199  0.00  0.00    +0.046 C 
ATOM     16  C   UNL     1      -4.854   0.756   1.635  0.00  0.00    +0.156 C 
ATOM     17  O   UNL     1      -5.769   0.746   2.495  0.00  0.00    -0.293 OA
ATOM     18  C   UNL     1      -4.353   2.063   1.093  0.00  0.00    +0.080 C 
ATOM     19  C   UNL     1      -3.033   1.917   0.313  0.00  0.00    +0.019 C 
ATOM     20  C   UNL     1      -2.155   0.702   0.760  0.00  0.00    -0.007 C 
ATOM     21  C   UNL     1      -1.699   0.875   2.249  0.00  0.00    +0.016 C 
ENDROOT
BRANCH   4  22
ATOM     22  C   UNL     1       4.573   0.828  -0.975  0.00  0.00    +0.162 C 
ATOM     23  C   UNL     1       5.859   0.203  -0.510  0.00  0.00    +0.089 C 
ATOM     24  O   UNL     1       4.546   2.043  -1.125  0.00  0.00    -0.295 OA
ENDBRANCH   4  22
BRANCH   4  25
ATOM     25  O   UNL     1       3.084   0.187  -2.743  0.00  0.00    -0.381 OA
ATOM     26  H   UNL     1       3.090   1.154  -2.968  0.00  0.00    +0.211 HD
ENDBRANCH   4  25
TORSDOF 2
