REMARK  Name = 
REMARK  6 active torsions:
REMARK  status: ('A' for Active; 'I' for Inactive)
REMARK    1  A    between atoms: C_1  and  C_2
REMARK    2  A    between atoms: C_3  and  C_4
REMARK    3  A    between atoms: C_5  and  N_6
REMARK    4  A    between atoms: N_6  and  C_7
REMARK    5  A    between atoms: C_12  and  C_13
REMARK    6  A    between atoms: C_13  and  O_14
REMARK                            x       y       z     vdW  Elec       q    Type
REMARK                         _______ _______ _______ _____ _____    ______ ____
ROOT
ATOM      1  N   UNL     1      -0.342  -0.647   1.040  0.00  0.00    -0.314 N 
ATOM      2  H   UNL     1      -0.054  -0.995   1.983  0.00  0.00    +0.152 HD
ENDROOT
BRANCH   1   7
ATOM      3  C   UNL     1       4.327   0.887  -0.093  0.00  0.00    +0.044 C 
ATOM      4  C   UNL     1       2.967   0.359  -0.476  0.00  0.00    -0.046 A 
ATOM      5  C   UNL     1       1.933   0.185   0.483  0.00  0.00    -0.026 A 
ATOM      6  C   UNL     1       2.155   0.546   1.935  0.00  0.00    +0.046 C 
ATOM      7  C   UNL     1       0.691  -0.364   0.073  0.00  0.00    +0.035 A 
ATOM      8  C   UNL     1       0.481  -0.665  -1.284  0.00  0.00    +0.023 A 
ATOM      9  C   UNL     1       1.484  -0.442  -2.224  0.00  0.00    +0.002 A 
ATOM     10  C   UNL     1       2.718   0.061  -1.825  0.00  0.00    +0.004 A 
ENDBRANCH   1   7
BRANCH   1  11
ATOM     11  C   UNL     1      -1.735  -0.755   0.701  0.00  0.00    +0.045 A 
ATOM     12  C   UNL     1      -2.404  -1.951   1.004  0.00  0.00    +0.024 A 
ATOM     13  C   UNL     1      -3.733  -2.137   0.624  0.00  0.00    +0.002 A 
ATOM     14  C   UNL     1      -4.411  -1.128  -0.058  0.00  0.00    +0.001 A 
ATOM     15  C   UNL     1      -3.770   0.079  -0.344  0.00  0.00    +0.017 A 
ATOM     16  C   UNL     1      -2.436   0.293   0.048  0.00  0.00    +0.080 A 
BRANCH  16  17
ATOM     17  C   UNL     1      -1.832   1.625  -0.192  0.00  0.00    +0.339 C 
ATOM     18  O   UNL     1      -0.904   2.054   0.544  0.00  0.00    -0.245 OA
BRANCH  17  19
ATOM     19  O   UNL     1      -2.319   2.435  -1.215  0.00  0.00    -0.477 OA
ATOM     20  H   UNL     1      -1.925   3.353  -1.383  0.00  0.00    +0.295 HD
ENDBRANCH  17  19
ENDBRANCH  16  17
ENDBRANCH   1  11
TORSDOF 4
