REMARK  Name = 
REMARK  5 active torsions:
REMARK  status: ('A' for Active; 'I' for Inactive)
REMARK    1  A    between atoms: O_1  and  C_2
REMARK    2  A    between atoms: C_2  and  C_3
REMARK    3  A    between atoms: C_2  and  C_9
REMARK    4  A    between atoms: C_11  and  C_23
REMARK    5  A    between atoms: C_18  and  C_19
REMARK                            x       y       z     vdW  Elec       q    Type
REMARK                         _______ _______ _______ _____ _____    ______ ____
ROOT
ATOM      1  C   UNL     1       0.463   0.792  -0.599  0.00  0.00    -0.007 A 
ATOM      2  C   UNL     1       0.783   0.320  -1.885  0.00  0.00    +0.039 A 
ATOM      3  C   UNL     1       2.000  -0.321  -2.125  0.00  0.00    +0.145 A 
ATOM      4  N   UNL     1       2.871  -0.507  -1.103  0.00  0.00    -0.242 NA
ATOM      5  C   UNL     1       2.612  -0.100   0.168  0.00  0.00    +0.084 A 
ATOM      6  C   UNL     1       1.383   0.554   0.464  0.00  0.00    +0.007 A 
ATOM      7  C   UNL     1       1.128   0.926   1.801  0.00  0.00    +0.010 A 
ATOM      8  C   UNL     1       2.067   0.677   2.801  0.00  0.00    +0.001 A 
ATOM      9  C   UNL     1       3.274   0.053   2.500  0.00  0.00    +0.014 A 
ATOM     10  C   UNL     1       3.564  -0.343   1.185  0.00  0.00    +0.081 A 
ENDROOT
BRANCH  10  11
ATOM     11  C   UNL     1       4.872  -1.036   0.861  0.00  0.00    +0.419 C 
ATOM     12  F   UNL     1       4.614  -2.304   0.373  0.00  0.00    -0.166 F 
ATOM     13  F   UNL     1       5.554  -0.312  -0.100  0.00  0.00    -0.166 F 
ATOM     14  F   UNL     1       5.684  -1.153   1.976  0.00  0.00    -0.166 F 
ENDBRANCH  10  11
BRANCH   3  15
ATOM     15  C   UNL     1       2.342  -0.812  -3.501  0.00  0.00    +0.434 C 
ATOM     16  F   UNL     1       3.598  -1.394  -3.513  0.00  0.00    -0.164 F 
ATOM     17  F   UNL     1       2.332   0.248  -4.389  0.00  0.00    -0.164 F 
ATOM     18  F   UNL     1       1.410  -1.751  -3.904  0.00  0.00    -0.164 F 
ENDBRANCH   3  15
BRANCH   1  19
ATOM     19  C   UNL     1      -0.889   1.481  -0.411  0.00  0.00    +0.162 C 
BRANCH  19  20
ATOM     20  C   UNL     1      -2.012   0.431  -0.258  0.00  0.00    +0.087 C 
ATOM     21  C   UNL     1      -3.406   1.100  -0.132  0.00  0.00    +0.021 C 
ATOM     22  C   UNL     1      -4.418   0.211   0.615  0.00  0.00    +0.003 C 
ATOM     23  C   UNL     1      -4.092  -1.274   0.441  0.00  0.00    +0.015 C 
ATOM     24  C   UNL     1      -2.663  -1.599   0.931  0.00  0.00    +0.081 C 
ATOM     25  N   UNL     1      -1.751  -0.440   0.900  0.00  0.00    -0.311 NA
ATOM     26  H   UNL     1      -1.881   0.113   1.781  0.00  0.00    +0.122 HD
ENDBRANCH  19  20
BRANCH  19  27
ATOM     27  O   UNL     1      -1.171   2.299  -1.521  0.00  0.00    -0.386 OA
ATOM     28  H   UNL     1      -0.549   3.072  -1.475  0.00  0.00    +0.210 HD
ENDBRANCH  19  27
ENDBRANCH   1  19
TORSDOF 5
