REMARK  Name = 
REMARK  5 active torsions:
REMARK  status: ('A' for Active; 'I' for Inactive)
REMARK    1  A    between atoms: C_4  and  O_5
REMARK    2  A    between atoms: C_4  and  C_6
REMARK    3  A    between atoms: C_6  and  C_7
REMARK    4  A    between atoms: C_9  and  C_10
REMARK    5  A    between atoms: C_23  and  C_24
REMARK                            x       y       z     vdW  Elec       q    Type
REMARK                         _______ _______ _______ _____ _____    ______ ____
ROOT
ATOM      1  C   UNL     1       1.069   0.495   1.016  0.00  0.00    +0.005 C 
ATOM      2  C   UNL     1       1.931   1.518   1.747  0.00  0.00    +0.008 C 
ATOM      3  C   UNL     1       3.380   1.055   1.502  0.00  0.00    +0.043 C 
ATOM      4  C   UNL     1       3.318  -0.147   0.512  0.00  0.00    +0.129 C 
ATOM      5  C   UNL     1       1.926   0.052  -0.184  0.00  0.00    +0.007 C 
ATOM      6  C   UNL     1       2.038   1.152  -1.296  0.00  0.00    +0.015 C 
ATOM      7  C   UNL     1       1.266  -1.214  -0.793  0.00  0.00    +0.010 C 
ATOM      8  C   UNL     1      -0.202  -0.949  -1.209  0.00  0.00    +0.005 C 
ATOM      9  C   UNL     1      -1.054  -0.358  -0.043  0.00  0.00    +0.006 C 
ATOM     10  C   UNL     1      -0.370   0.887   0.613  0.00  0.00    +0.019 C 
ATOM     11  C   UNL     1      -1.169   1.363   1.801  0.00  0.00    -0.023 C 
ATOM     12  C   UNL     1      -2.493   1.203   1.879  0.00  0.00    +0.000 C 
ATOM     13  C   UNL     1      -3.256   0.433   0.867  0.00  0.00    -0.038 C 
ATOM     14  C   UNL     1      -4.566   0.223   1.079  0.00  0.00    +0.050 C 
ATOM     15  C   UNL     1      -5.378  -0.598   0.169  0.00  0.00    +0.156 C 
ATOM     16  O   UNL     1      -6.612  -0.727   0.387  0.00  0.00    -0.293 OA
ATOM     17  C   UNL     1      -4.769  -1.255  -1.030  0.00  0.00    +0.080 C 
ATOM     18  C   UNL     1      -3.246  -1.387  -0.883  0.00  0.00    +0.019 C 
ATOM     19  C   UNL     1      -2.558  -0.072  -0.401  0.00  0.00    -0.003 C 
ATOM     20  C   UNL     1      -2.694   1.015  -1.499  0.00  0.00    +0.016 C 
ENDROOT
BRANCH   4  21
ATOM     21  C   UNL     1       4.518  -0.151  -0.452  0.00  0.00    +0.162 C 
ATOM     22  C   UNL     1       5.145  -1.429  -0.933  0.00  0.00    +0.089 C 
ATOM     23  O   UNL     1       4.978   0.905  -0.863  0.00  0.00    -0.295 OA
ENDBRANCH   4  21
BRANCH   4  24
ATOM     24  O   UNL     1       3.328  -1.316   1.308  0.00  0.00    -0.381 OA
ATOM     25  H   UNL     1       3.294  -2.113   0.721  0.00  0.00    +0.211 HD
ENDBRANCH   4  24
TORSDOF 2
