REMARK  Name = 
REMARK  6 active torsions:
REMARK  status: ('A' for Active; 'I' for Inactive)
REMARK    1  A    between atoms: C_1  and  O_2
REMARK    2  A    between atoms: O_2  and  C_3
REMARK    3  A    between atoms: C_9  and  C_10
REMARK    4  A    between atoms: C_10  and  C_11
REMARK    5  A    between atoms: C_11  and  N_12
REMARK    6  A    between atoms: C_13  and  C_14
REMARK                            x       y       z     vdW  Elec       q    Type
REMARK                         _______ _______ _______ _____ _____    ______ ____
ROOT
ATOM      1  C   UNL     1      -2.927   0.231  -0.851  0.00  0.00    +0.121 A 
ATOM      2  C   UNL     1      -1.538   0.016  -0.749  0.00  0.00    +0.056 A 
ATOM      3  C   UNL     1      -1.062  -0.726   0.332  0.00  0.00    +0.006 A 
ATOM      4  C   UNL     1      -1.904  -1.233   1.286  0.00  0.00    +0.047 A 
ATOM      5  N   UNL     1      -1.215  -1.885   2.240  0.00  0.00    -0.360 N 
ATOM      6  C   UNL     1       0.088  -1.791   1.890  0.00  0.00    +0.087 A 
ATOM      7  C   UNL     1       0.220  -1.085   0.698  0.00  0.00    -0.021 A 
ATOM      8  C   UNL     1      -3.281  -1.040   1.223  0.00  0.00    +0.030 A 
ATOM      9  C   UNL     1      -3.796  -0.302   0.142  0.00  0.00    +0.047 A 
ATOM     10  H   UNL     1      -1.602  -2.356   3.088  0.00  0.00    +0.165 HD
ENDROOT
BRANCH   1  12
ATOM     11  C   UNL     1      -4.775   1.275  -2.170  0.00  0.00    +0.277 C 
ATOM     12  O   UNL     1      -3.402   0.975  -1.941  0.00  0.00    -0.495 OA
ENDBRANCH   1  12
BRANCH   7  13
ATOM     13  C   UNL     1       1.504  -0.706   0.023  0.00  0.00    +0.056 C 
BRANCH  13  14
ATOM     14  C   UNL     1       1.948   0.692   0.459  0.00  0.00    +0.109 C 
BRANCH  14  15
ATOM     15  N   UNL     1       3.183   1.071  -0.224  0.00  0.00    -0.315 N 
ATOM     16  C   UNL     1       4.463   0.536   0.139  0.00  0.00    +0.210 C 
ATOM     17  C   UNL     1       5.683   0.950  -0.616  0.00  0.00    +0.109 C 
ATOM     18  O   UNL     1       4.568  -0.272   1.101  0.00  0.00    -0.276 OA
ATOM     19  H   UNL     1       3.135   1.802  -0.970  0.00  0.00    +0.149 HD
ENDBRANCH  14  15
ENDBRANCH  13  14
ENDBRANCH   7  13
TORSDOF 4
