REMARK  Name = 
REMARK  4 active torsions:
REMARK  status: ('A' for Active; 'I' for Inactive)
REMARK    1  A    between atoms: C_1  and  N_2
REMARK    2  A    between atoms: C_3  and  C_4
REMARK    3  A    between atoms: C_10  and  C_11
REMARK    4  A    between atoms: C_13  and  O_14
REMARK                            x       y       z     vdW  Elec       q    Type
REMARK                         _______ _______ _______ _____ _____    ______ ____
ROOT
ATOM      1  C   UNL     1      -0.895  -3.021  -0.323  0.00  0.00    +0.158 C 
ATOM      2  N   UNL     1      -1.399  -1.772   0.253  0.00  0.00    -0.197 N 
ATOM      3  C   UNL     1      -0.599  -0.568   0.252  0.00  0.00    +0.155 C 
ATOM      4  C   UNL     1      -1.157   0.666   0.360  0.00  0.00    +0.153 C 
ATOM      5  C   UNL     1      -2.639   0.908   0.359  0.00  0.00    +0.045 A 
ATOM      6  C   UNL     1      -3.559  -0.111   0.680  0.00  0.00    +0.119 A 
ATOM      7  C   UNL     1      -4.934   0.154   0.731  0.00  0.00    +0.029 A 
ATOM      8  C   UNL     1      -5.413   1.430   0.440  0.00  0.00    +0.002 A 
ATOM      9  C   UNL     1      -4.522   2.441   0.081  0.00  0.00    +0.001 A 
ATOM     10  C   UNL     1      -3.149   2.184   0.035  0.00  0.00    +0.013 A 
ATOM     11  S   UNL     1      -2.982  -1.729   0.944  0.00  0.00    +0.075 S 
ATOM     12  O   UNL     1      -2.916  -2.039   2.412  0.00  0.00    -0.150 OA
ATOM     13  O   UNL     1      -3.886  -2.705   0.242  0.00  0.00    -0.150 OA
ENDROOT
BRANCH   3  14
ATOM     14  C   UNL     1       0.877  -0.691   0.185  0.00  0.00    +0.269 C 
ATOM     15  O   UNL     1       1.461  -1.505   0.949  0.00  0.00    -0.268 OA
ATOM     16  N   UNL     1       1.626   0.088  -0.764  0.00  0.00    -0.259 N 
ATOM     17  C   UNL     1       3.056   0.207  -0.780  0.00  0.00    +0.165 A 
ATOM     18  N   UNL     1       3.715   0.854  -1.767  0.00  0.00    -0.233 NA
ATOM     19  C   UNL     1       5.058   0.874  -1.553  0.00  0.00    +0.124 A 
ATOM     20  C   UNL     1       5.471   0.236  -0.389  0.00  0.00    +0.008 A 
ATOM     21  C   UNL     1       6.868   0.183   0.129  0.00  0.00    +0.053 C 
ATOM     22  S   UNL     1       4.113  -0.345   0.415  0.00  0.00    -0.057 S 
ATOM     23  H   UNL     1       1.096   0.593  -1.510  0.00  0.00    +0.157 HD
ENDBRANCH   3  14
BRANCH   4  24
ATOM     24  O   UNL     1      -0.292   1.758   0.507  0.00  0.00    -0.504 OA
ATOM     25  H   UNL     1      -0.605   2.685   0.765  0.00  0.00    +0.292 HD
ENDBRANCH   4  24
TORSDOF 2
