REMARK  Name = 
REMARK  10 active torsions:
REMARK  status: ('A' for Active; 'I' for Inactive)
REMARK    1  A    between atoms: N_1  and  CA_2
REMARK    2  A    between atoms: CA_2  and  C_3
REMARK    3  A    between atoms: CA_2  and  C_17
REMARK    4  A    between atoms: C_3  and  C_4
REMARK    5  A    between atoms: C_7  and  N_10
REMARK    6  A    between atoms: N_10  and  C_11
REMARK    7  A    between atoms: N_10  and  C_14
REMARK    8  A    between atoms: C_11  and  C_12
REMARK    9  A    between atoms: C_14  and  C_15
REMARK   10  A    between atoms: C_17  and  O_18
REMARK                            x       y       z     vdW  Elec       q    Type
REMARK                         _______ _______ _______ _____ _____    ______ ____
ROOT
ATOM      1  C   UNL     1      -1.755  -0.066   0.718  0.00  0.00    -0.045 A 
ATOM      2  C   UNL     1      -1.331   1.083   0.036  0.00  0.00    +0.005 A 
ATOM      3  C   UNL     1      -0.003   1.211  -0.381  0.00  0.00    +0.023 A 
ATOM      4  C   UNL     1       0.932   0.192  -0.119  0.00  0.00    +0.030 A 
ATOM      5  C   UNL     1       0.498  -0.961   0.561  0.00  0.00    +0.023 A 
ATOM      6  C   UNL     1      -0.829  -1.087   0.977  0.00  0.00    +0.005 A 
ENDROOT
BRANCH   1   7
ATOM      7  C   UNL     1      -3.194  -0.209   1.154  0.00  0.00    +0.065 C 
BRANCH   7   8
ATOM      8  CA  UNL     1      -4.113  -0.828   0.075  0.00  0.00    +0.165 C 
BRANCH   8   9
ATOM      9  N   UNL     1      -3.723  -2.198  -0.272  0.00  0.00    -0.318 NA
ATOM     10  H1  UNL     1      -3.712  -2.777   0.599  0.00  0.00    +0.119 HD
ATOM     11  H2  UNL     1      -2.755  -2.208  -0.667  0.00  0.00    +0.119 HD
ENDBRANCH   8   9
BRANCH   8  12
ATOM     12  C   UNL     1      -4.196   0.037  -1.154  0.00  0.00    +0.322 C 
ATOM     13  OXT UNL     1      -3.418  -0.154  -2.128  0.00  0.00    -0.249 OA
BRANCH  12  14
ATOM     14  O   UNL     1      -5.105   1.089  -1.193  0.00  0.00    -0.480 OA
ATOM     15  H   UNL     1      -5.163   1.696  -2.002  0.00  0.00    +0.295 HD
ENDBRANCH  12  14
ENDBRANCH   8  12
ENDBRANCH   7   8
ENDBRANCH   1   7
BRANCH   4  16
ATOM     16  N   UNL     1       2.312   0.320  -0.540  0.00  0.00    -0.328 N 
BRANCH  16  17
ATOM     17  C   UNL     1       2.958  -0.780  -1.278  0.00  0.00    +0.121 C 
BRANCH  17  18
ATOM     18  C   UNL     1       4.245  -1.267  -0.599  0.00  0.00    +0.127 C 
ATOM     19 CL   UNL     1       3.942  -1.889   1.044  0.00  0.00    -0.124 Cl
ENDBRANCH  17  18
ENDBRANCH  16  17
BRANCH  16  20
ATOM     20  C   UNL     1       3.022   1.602  -0.386  0.00  0.00    +0.121 C 
BRANCH  20  21
ATOM     21  C   UNL     1       3.239   1.922   1.091  0.00  0.00    +0.127 C 
ATOM     22 CL   UNL     1       4.127   3.457   1.263  0.00  0.00    -0.124 Cl
ENDBRANCH  20  21
ENDBRANCH  16  20
ENDBRANCH   4  16
TORSDOF 10
