REMARK  Name = 
REMARK  3 active torsions:
REMARK  status: ('A' for Active; 'I' for Inactive)
REMARK    1  A    between atoms: C_1  and  C_2
REMARK    2  A    between atoms: C_6  and  C_7
REMARK    3  A    between atoms: C_10  and  N_11
REMARK                            x       y       z     vdW  Elec       q    Type
REMARK                         _______ _______ _______ _____ _____    ______ ____
ROOT
ATOM      1  C   UNL     1      -1.788  -2.334   0.049  0.00  0.00    +0.011 C 
ATOM      2  C   UNL     1      -0.914  -1.077  -0.094  0.00  0.00    -0.030 C 
ATOM      3  C   UNL     1      -0.951  -0.572  -1.561  0.00  0.00    +0.010 C 
ATOM      4  C   UNL     1      -0.072   0.688  -1.706  0.00  0.00    -0.008 C 
ATOM      5  C   UNL     1       1.384   0.350  -1.326  0.00  0.00    +0.010 C 
ATOM      6  C   UNL     1       1.444  -0.143   0.143  0.00  0.00    -0.030 C 
ATOM      7  C   UNL     1       2.897  -0.478   0.523  0.00  0.00    +0.011 C 
ATOM      8  C   UNL     1       0.553  -1.405   0.290  0.00  0.00    +0.013 C 
ATOM      9  C   UNL     1       0.898   0.973   1.073  0.00  0.00    +0.028 C 
ATOM     10  C   UNL     1      -0.566   1.318   0.696  0.00  0.00    +0.018 C 
ATOM     11  C   UNL     1      -0.604   1.799  -0.777  0.00  0.00    +0.025 C 
ATOM     12  C   UNL     1      -1.442   0.045   0.839  0.00  0.00    +0.028 C 
ENDROOT
BRANCH  10  13
ATOM     13  N   UNL     1      -1.058   2.387   1.573  0.00  0.00    -0.325 NA
ATOM     14  H   UNL     1      -1.054   2.050   2.563  0.00  0.00    +0.119 HD
ATOM     15  H   UNL     1      -2.054   2.601   1.331  0.00  0.00    +0.119 HD
ENDBRANCH  10  13
TORSDOF 1
