REMARK  Name = 
REMARK  1 active torsions:
REMARK  status: ('A' for Active; 'I' for Inactive)
REMARK    1  A    between atoms: C_1  and  C_2
REMARK                            x       y       z     vdW  Elec       q    Type
REMARK                         _______ _______ _______ _____ _____    ______ ____
ROOT
ATOM      1  C   UNL     1      -3.280   0.018   0.996  0.00  0.00    +0.048 C 
ATOM      2  C   UNL     1      -1.932  -0.014   0.329  0.00  0.00    +0.000 C 
ATOM      3  C   UNL     1      -1.838  -0.297  -0.981  0.00  0.00    +0.058 C 
ATOM      4  C   UNL     1      -0.532  -0.368  -1.660  0.00  0.00    +0.187 C 
ATOM      5  O   UNL     1      -0.490  -0.626  -2.893  0.00  0.00    -0.287 OA
ATOM      6  C   UNL     1       0.713  -0.139  -0.893  0.00  0.00    +0.032 A 
ATOM      7  C   UNL     1       1.972  -0.196  -1.515  0.00  0.00    +0.012 A 
ATOM      8  C   UNL     1       3.134   0.021  -0.772  0.00  0.00    +0.001 A 
ATOM      9  C   UNL     1       3.052   0.294   0.595  0.00  0.00    +0.001 A 
ATOM     10  C   UNL     1       1.806   0.353   1.225  0.00  0.00    +0.012 A 
ATOM     11  C   UNL     1       0.628   0.138   0.487  0.00  0.00    +0.033 A 
ATOM     12  C   UNL     1      -0.704   0.195   1.136  0.00  0.00    +0.190 C 
ATOM     13  O   UNL     1      -0.797   0.419   2.374  0.00  0.00    -0.287 OA
ENDROOT
TORSDOF 0
