REMARK  Name = 
REMARK  5 active torsions:
REMARK  status: ('A' for Active; 'I' for Inactive)
REMARK    1  A    between atoms: C_1  and  C_2
REMARK    2  A    between atoms: C_2  and  C_3
REMARK    3  A    between atoms: C_2  and  C_4
REMARK    4  A    between atoms: C_7  and  C_8
REMARK    5  A    between atoms: C_10  and  O_11
REMARK                            x       y       z     vdW  Elec       q    Type
REMARK                         _______ _______ _______ _____ _____    ______ ____
ROOT
ATOM      1  C   UNL     1       0.647   0.034  -0.507  0.00  0.00    +0.020 C 
ATOM      2  C   UNL     1      -0.540   1.020  -0.751  0.00  0.00    +0.006 C 
ATOM      3  C   UNL     1      -1.544   1.020   0.407  0.00  0.00    +0.004 C 
ATOM      4  C   UNL     1      -2.205  -0.369   0.597  0.00  0.00    -0.012 C 
ATOM      5  C   UNL     1      -3.570  -0.437  -0.099  0.00  0.00    +0.007 C 
ATOM      6  C   UNL     1      -1.297  -1.524   0.114  0.00  0.00    +0.035 C 
ATOM      7  C   UNL     1       0.189  -1.200   0.340  0.00  0.00    +0.118 C 
ENDROOT
BRANCH   1   9
ATOM      8  C   UNL     1       2.990  -0.221   0.574  0.00  0.00    +0.007 C 
ATOM      9  C   UNL     1       1.896   0.760   0.106  0.00  0.00    -0.012 C 
ATOM     10  C   UNL     1       2.538   1.739  -0.901  0.00  0.00    +0.007 C 
ENDBRANCH   1   9
BRANCH   7  11
ATOM     11  O   UNL     1       0.962  -2.321  -0.005  0.00  0.00    -0.391 OA
ATOM     12  H   UNL     1       0.889  -2.965   0.747  0.00  0.00    +0.210 HD
ENDBRANCH   7  11
TORSDOF 2
