REMARK  Name = 
REMARK  6 active torsions:
REMARK  status: ('A' for Active; 'I' for Inactive)
REMARK    1  A    between atoms: C_1  and  C_2
REMARK    2  A    between atoms: C_2  and  O_3
REMARK    3  A    between atoms: O_3  and  C_4
REMARK    4  A    between atoms: C_4  and  C_6
REMARK    5  A    between atoms: C_6  and  C_13
REMARK    6  A    between atoms: N_9  and  C_10
REMARK                            x       y       z     vdW  Elec       q    Type
REMARK                         _______ _______ _______ _____ _____    ______ ____
ROOT
ATOM      1  C   UNL     1      -0.023  -0.136   0.195  0.00  0.00    +0.095 C 
ATOM      2  C   UNL     1      -0.701   0.189  -1.192  0.00  0.00    +0.038 C 
ATOM      3  C   UNL     1      -2.228   0.317  -1.099  0.00  0.00    +0.085 C 
ATOM      4  N   UNL     1      -2.618   1.432  -0.204  0.00  0.00    -0.305 NA
ATOM      5  C   UNL     1      -4.041   1.319   0.153  0.00  0.00    +0.104 C 
ATOM      6  C   UNL     1      -1.764   1.562   1.006  0.00  0.00    +0.085 C 
ATOM      7  C   UNL     1      -1.021   0.260   1.339  0.00  0.00    +0.038 C 
ENDROOT
BRANCH   1   8
ATOM      8  C   UNL     1       0.397  -1.621   0.269  0.00  0.00    -0.031 A 
ATOM      9  C   UNL     1       1.196  -2.174  -0.761  0.00  0.00    +0.005 A 
ATOM     10  C   UNL     1       1.627  -3.501  -0.708  0.00  0.00    +0.000 A 
ATOM     11  C   UNL     1       1.300  -4.301   0.385  0.00  0.00    +0.000 A 
ATOM     12  C   UNL     1       0.558  -3.768   1.437  0.00  0.00    +0.000 A 
ATOM     13  C   UNL     1       0.123  -2.440   1.393  0.00  0.00    +0.005 A 
ENDBRANCH   1   8
BRANCH   1  14
ATOM     14  C   UNL     1       1.259   0.676   0.336  0.00  0.00    +0.318 C 
ATOM     15  O   UNL     1       1.701   0.976   1.480  0.00  0.00    -0.250 OA
BRANCH  14  16
ATOM     16  O   UNL     1       2.008   1.000  -0.804  0.00  0.00    -0.464 OA
BRANCH  16  18
ATOM     17  C   UNL     1       2.855   3.259  -0.551  0.00  0.00    +0.048 C 
ATOM     18  C   UNL     1       3.195   1.789  -0.768  0.00  0.00    +0.229 C 
ENDBRANCH  16  18
ENDBRANCH  14  16
ENDBRANCH   1  14
TORSDOF 4
