REMARK  Name = 
REMARK  8 active torsions:
REMARK  status: ('A' for Active; 'I' for Inactive)
REMARK    1  A    between atoms: C_1  and  N_2
REMARK    2  A    between atoms: N_2  and  C_3
REMARK    3  A    between atoms: C_7  and  O_9
REMARK    4  A    between atoms: O_9  and  C_10
REMARK    5  A    between atoms: C_10  and  C_12
REMARK    6  A    between atoms: C_12  and  O_13
REMARK    7  A    between atoms: C_12  and  C_14
REMARK    8  A    between atoms: C_12  and  C_20
REMARK                            x       y       z     vdW  Elec       q    Type
REMARK                         _______ _______ _______ _____ _____    ______ ____
ROOT
ATOM      1  C   UNL     1       2.285  -0.245  -1.358  0.00  0.00    +0.213 C 
ENDROOT
BRANCH   1   2
ATOM      2  C   UNL     1       2.406  -1.366  -0.321  0.00  0.00    -0.001 A 
ATOM      3  C   UNL     1       2.598  -2.704  -0.725  0.00  0.00    +0.007 A 
ATOM      4  C   UNL     1       2.654  -3.734   0.219  0.00  0.00    +0.000 A 
ATOM      5  C   UNL     1       2.497  -3.451   1.576  0.00  0.00    +0.000 A 
ATOM      6  C   UNL     1       2.273  -2.139   1.993  0.00  0.00    +0.000 A 
ATOM      7  C   UNL     1       2.218  -1.104   1.055  0.00  0.00    +0.007 A 
ENDBRANCH   1   2
BRANCH   1   8
ATOM      8  C   UNL     1       2.959   1.031  -0.830  0.00  0.00    -0.001 A 
ATOM      9  C   UNL     1       4.366   1.078  -0.756  0.00  0.00    +0.007 A 
ATOM     10  C   UNL     1       5.018   2.206  -0.250  0.00  0.00    +0.000 A 
ATOM     11  C   UNL     1       4.278   3.299   0.202  0.00  0.00    +0.000 A 
ATOM     12  C   UNL     1       2.883   3.264   0.155  0.00  0.00    +0.000 A 
ATOM     13  C   UNL     1       2.224   2.139  -0.350  0.00  0.00    +0.007 A 
ENDBRANCH   1   8
BRANCH   1  14
ATOM     14  C   UNL     1       0.814  -0.036  -1.674  0.00  0.00    +0.349 C 
ATOM     15  O   UNL     1       0.471   0.426  -2.798  0.00  0.00    -0.247 OA
BRANCH  14  16
ATOM     16  O   UNL     1      -0.154  -0.302  -0.697  0.00  0.00    -0.461 OA
BRANCH  16  23
ATOM     17  C   UNL     1      -4.646  -1.554   0.495  0.00  0.00    -0.092 C 
ATOM     18  N   UNL     1      -3.745  -0.377   0.424  0.00  0.00    +0.379 N 
ATOM     19  C   UNL     1      -3.846   0.337   1.725  0.00  0.00    -0.092 C 
ATOM     20  C   UNL     1      -4.232   0.506  -0.675  0.00  0.00    -0.076 C 
ATOM     21  C   UNL     1      -3.339   1.744  -0.902  0.00  0.00    -0.015 C 
ATOM     22  C   UNL     1      -1.840   1.444  -0.747  0.00  0.00    +0.041 C 
ATOM     23  C   UNL     1      -1.549  -0.054  -0.870  0.00  0.00    +0.161 C 
ATOM     24  C   UNL     1      -2.334  -0.850   0.197  0.00  0.00    -0.031 C 
ENDBRANCH  16  23
ENDBRANCH  14  16
ENDBRANCH   1  14
BRANCH   1  25
ATOM     25  O   UNL     1       2.945  -0.647  -2.541  0.00  0.00    -0.370 OA
ATOM     26  H   UNL     1       2.959   0.122  -3.171  0.00  0.00    +0.212 HD
ENDBRANCH   1  25
TORSDOF 6
