REMARK  Name = 
REMARK  6 active torsions:
REMARK  status: ('A' for Active; 'I' for Inactive)
REMARK    1  A    between atoms: C_1  and  N_2
REMARK    2  A    between atoms: N_2  and  C_3
REMARK    3  A    between atoms: C_3  and  C_4
REMARK    4  A    between atoms: C_3  and  C_5
REMARK    5  A    between atoms: C_3  and  C_6
REMARK    6  A    between atoms: C_6  and  C_7
REMARK                            x       y       z     vdW  Elec       q    Type
REMARK                         _______ _______ _______ _____ _____    ______ ____
ROOT
ATOM      1  C   UNL     1      -0.131   0.044  -1.387  0.00  0.00    +0.056 C 
ENDROOT
BRANCH   1   2
ATOM      2  C   UNL     1       1.243   0.146  -0.763  0.00  0.00    -0.046 A 
ATOM      3  C   UNL     1       1.961  -1.016  -0.431  0.00  0.00    +0.004 A 
ATOM      4  C   UNL     1       3.228  -0.920   0.151  0.00  0.00    +0.000 A 
ATOM      5  C   UNL     1       3.791   0.334   0.403  0.00  0.00    +0.000 A 
ATOM      6  C   UNL     1       3.087   1.494   0.070  0.00  0.00    +0.000 A 
ATOM      7  C   UNL     1       1.819   1.403  -0.512  0.00  0.00    +0.004 A 
ENDBRANCH   1   2
BRANCH   1   8
ATOM      8  C   UNL     1      -1.301  -0.001  -0.358  0.00  0.00    +0.017 C 
ATOM      9  C   UNL     1      -2.614  -0.114  -1.171  0.00  0.00    +0.027 C 
ATOM     10  C   UNL     1      -1.333   1.311   0.464  0.00  0.00    +0.027 C 
BRANCH   8  12
ATOM     11  C   UNL     1      -2.259  -1.521   1.378  0.00  0.00    +0.101 C 
ATOM     12  N   UNL     1      -1.113  -1.186   0.520  0.00  0.00    -0.314 NA
ATOM     13  H   UNL     1      -0.299  -1.018   1.156  0.00  0.00    +0.122 HD
ENDBRANCH   8  12
ENDBRANCH   1   8
TORSDOF 3
