REMARK  Name = 
REMARK  4 active torsions:
REMARK  status: ('A' for Active; 'I' for Inactive)
REMARK    1  A    between atoms: C_1  and  C_2
REMARK    2  A    between atoms: C_2  and  C_3
REMARK    3  A    between atoms: C_3  and  C_11
REMARK    4  A    between atoms: N_7  and  C_8
REMARK                            x       y       z     vdW  Elec       q    Type
REMARK                         _______ _______ _______ _____ _____    ______ ____
ROOT
ATOM      1  C   UNL     1      -0.265  -0.400  -0.300  0.00  0.00    +0.138 C 
ATOM      2  N   UNL     1      -1.163   0.411  -1.132  0.00  0.00    -0.281 N 
ATOM      3  C   UNL     1      -2.163   0.976  -0.296  0.00  0.00    +0.309 C 
ATOM      4  O   UNL     1      -3.050   1.765  -0.717  0.00  0.00    -0.252 OA
ATOM      5  N   UNL     1      -2.051   0.569   1.055  0.00  0.00    -0.227 N 
ATOM      6  C   UNL     1      -2.631   1.255   2.203  0.00  0.00    +0.143 C 
ATOM      7  C   UNL     1      -0.881  -0.241   1.073  0.00  0.00    +0.251 C 
ATOM      8  O   UNL     1      -0.426  -0.762   2.127  0.00  0.00    -0.272 OA
ATOM      9  H   UNL     1      -1.117   0.511  -2.171  0.00  0.00    +0.152 HD
ENDROOT
BRANCH   1  10
ATOM     10  C   UNL     1       1.161   0.159  -0.304  0.00  0.00    -0.015 A 
ATOM     11  C   UNL     1       2.171  -0.482   0.447  0.00  0.00    +0.006 A 
ATOM     12  C   UNL     1       3.477   0.016   0.464  0.00  0.00    +0.000 A 
ATOM     13  C   UNL     1       3.799   1.163  -0.261  0.00  0.00    +0.000 A 
ATOM     14  C   UNL     1       2.815   1.818  -1.001  0.00  0.00    +0.000 A 
ATOM     15  C   UNL     1       1.506   1.326  -1.023  0.00  0.00    +0.006 A 
ENDBRANCH   1  10
BRANCH   1  17
ATOM     16  C   UNL     1      -1.704  -2.461  -0.899  0.00  0.00    +0.007 C 
ATOM     17  C   UNL     1      -0.293  -1.875  -0.780  0.00  0.00    +0.037 C 
ENDBRANCH   1  17
TORSDOF 2
