REMARK  Name = 
REMARK  5 active torsions:
REMARK  status: ('A' for Active; 'I' for Inactive)
REMARK    1  A    between atoms: C_1  and  N_2
REMARK    2  A    between atoms: C_7  and  C_8
REMARK    3  A    between atoms: N_10  and  C_11
REMARK    4  A    between atoms: C_12  and  C_13
REMARK    5  A    between atoms: C_17  and  C_18
REMARK                            x       y       z     vdW  Elec       q    Type
REMARK                         _______ _______ _______ _____ _____    ______ ____
ROOT
ATOM      1  C   UNL     1      -0.267   0.546   0.015  0.00  0.00    +0.234 C 
ATOM      2  O   UNL     1      -0.156   0.782   1.250  0.00  0.00    -0.274 OA
ATOM      3  N   UNL     1       0.909   0.317  -0.774  0.00  0.00    -0.284 N 
ATOM      4  H   UNL     1       0.833   0.367  -1.815  0.00  0.00    +0.155 HD
ENDROOT
BRANCH   3   5
ATOM      5  C   UNL     1       2.217   0.213  -0.190  0.00  0.00    +0.039 A 
ATOM      6  C   UNL     1       3.196   1.187  -0.491  0.00  0.00    -0.029 A 
ATOM      7  C   UNL     1       2.882   2.330  -1.418  0.00  0.00    +0.045 C 
ATOM      8  C   UNL     1       4.475   1.084   0.076  0.00  0.00    +0.005 A 
ATOM      9  C   UNL     1       4.781   0.035   0.943  0.00  0.00    +0.001 A 
ATOM     10  C   UNL     1       3.822  -0.934   1.237  0.00  0.00    +0.005 A 
ATOM     11  C   UNL     1       2.545  -0.871   0.660  0.00  0.00    -0.029 A 
ATOM     12  C   UNL     1       1.548  -1.952   0.980  0.00  0.00    +0.045 C 
ENDBRANCH   3   5
BRANCH   1  19
ATOM     13  C   UNL     1      -3.863   1.527  -0.418  0.00  0.00    +0.105 C 
ATOM     14  N   UNL     1      -2.684   1.003   0.295  0.00  0.00    -0.295 NA
ATOM     15  C   UNL     1      -3.065   0.012   1.340  0.00  0.00    +0.085 C 
ATOM     16  C   UNL     1      -2.625  -1.430   1.038  0.00  0.00    +0.015 C 
ATOM     17  C   UNL     1      -2.797  -1.745  -0.441  0.00  0.00    +0.003 C 
ATOM     18  C   UNL     1      -1.956  -0.806  -1.318  0.00  0.00    +0.028 C 
ATOM     19  C   UNL     1      -1.626   0.558  -0.650  0.00  0.00    +0.143 C 
ENDBRANCH   1  19
TORSDOF 2
