REMARK  Name = 
REMARK  10 active torsions:
REMARK  status: ('A' for Active; 'I' for Inactive)
REMARK    1  A    between atoms: C_1  and  C_2
REMARK    2  A    between atoms: C_2  and  C_3
REMARK    3  A    between atoms: C_3  and  C_4
REMARK    4  A    between atoms: C_4  and  C_5
REMARK    5  A    between atoms: C_4  and  C_6
REMARK    6  A    between atoms: C_4  and  C_11
REMARK    7  A    between atoms: C_6  and  O_7
REMARK    8  A    between atoms: O_7  and  C_8
REMARK    9  A    between atoms: C_11  and  O_12
REMARK   10  A    between atoms: O_12  and  C_13
REMARK                            x       y       z     vdW  Elec       q    Type
REMARK                         _______ _______ _______ _____ _____    ______ ____
ROOT
ATOM      1  C   UNL     1       0.346  -0.323  -0.679  0.00  0.00    +0.036 C 
ATOM      2  C   UNL     1      -0.784  -0.719  -1.662  0.00  0.00    +0.018 C 
ENDROOT
BRANCH   1   3
ATOM      3  C   UNL     1       1.703  -0.738  -1.351  0.00  0.00    +0.013 C 
BRANCH   3   5
ATOM      4  C   UNL     1       3.497   0.403   0.124  0.00  0.00    +0.004 C 
ATOM      5  C   UNL     1       2.952  -0.902  -0.453  0.00  0.00    -0.003 C 
ENDBRANCH   3   5
ENDBRANCH   1   3
BRANCH   1   6
ATOM      6  C   UNL     1       0.135  -1.075   0.661  0.00  0.00    +0.243 C 
BRANCH   6   7
ATOM      7  O   UNL     1      -1.173  -0.843   1.181  0.00  0.00    -0.450 OA
BRANCH   7   8
ATOM      8  C   UNL     1      -1.620  -1.399   2.381  0.00  0.00    +0.398 C 
ATOM      9  N   UNL     1      -2.937  -1.111   2.841  0.00  0.00    -0.295 N 
ATOM     10  O   UNL     1      -0.870  -2.151   3.062  0.00  0.00    -0.227 OA
ATOM     11  H   UNL     1      -3.561  -0.486   2.283  0.00  0.00    +0.148 HD
ATOM     12  H   UNL     1      -3.288  -1.518   3.736  0.00  0.00    +0.148 HD
ENDBRANCH   7   8
ENDBRANCH   6   7
ENDBRANCH   1   6
BRANCH   1  13
ATOM     13  C   UNL     1       0.304   1.217  -0.452  0.00  0.00    +0.243 C 
BRANCH  13  14
ATOM     14  O   UNL     1      -0.967   1.656   0.035  0.00  0.00    -0.450 OA
BRANCH  14  15
ATOM     15  C   UNL     1      -1.960   2.227  -0.769  0.00  0.00    +0.398 C 
ATOM     16  N   UNL     1      -3.209   2.588  -0.186  0.00  0.00    -0.295 N 
ATOM     17  O   UNL     1      -1.765   2.424  -1.998  0.00  0.00    -0.227 OA
ATOM     18  H   UNL     1      -3.963   3.015  -0.769  0.00  0.00    +0.148 HD
ATOM     19  H   UNL     1      -3.381   2.421   0.830  0.00  0.00    +0.148 HD
ENDBRANCH  14  15
ENDBRANCH  13  14
ENDBRANCH   1  13
TORSDOF 8
