REMARK  Name = 
REMARK  9 active torsions:
REMARK  status: ('A' for Active; 'I' for Inactive)
REMARK    1  A    between atoms: C_1  and  O_2
REMARK    2  A    between atoms: O_2  and  C_3
REMARK    3  A    between atoms: C_6  and  C_7
REMARK    4  A    between atoms: C_7  and  N_8
REMARK    5  A    between atoms: N_8  and  C_9
REMARK    6  A    between atoms: C_9  and  C_10
REMARK    7  A    between atoms: C_10  and  N_11
REMARK    8  A    between atoms: N_11  and  C_12
REMARK    9  A    between atoms: N_11  and  C_13
REMARK                            x       y       z     vdW  Elec       q    Type
REMARK                         _______ _______ _______ _____ _____    ______ ____
ROOT
ATOM      1  N   UNL     1      -0.171  -1.807  -0.602  0.00  0.00    -0.310 N 
ATOM      2  C   UNL     1      -1.145  -2.669   0.034  0.00  0.00    +0.122 A 
ATOM      3  N   UNL     1      -2.252  -3.058  -0.661  0.00  0.00    -0.240 NA
ATOM      4  C   UNL     1      -3.212  -3.851  -0.118  0.00  0.00    +0.113 A 
ATOM      5  C   UNL     1      -3.089  -4.294   1.198  0.00  0.00    +0.020 A 
ATOM      6  C   UNL     1      -1.977  -3.907   1.945  0.00  0.00    +0.005 A 
ATOM      7  C   UNL     1      -1.001  -3.091   1.370  0.00  0.00    +0.043 A 
ENDROOT
BRANCH   1   8
ATOM      8  C   UNL     1       1.265  -1.884  -0.282  0.00  0.00    +0.141 C 
BRANCH   8  12
ATOM      9  C   UNL     1       2.595   2.008   1.057  0.00  0.00    +0.120 A 
ATOM     10  C   UNL     1       1.871   1.172   1.914  0.00  0.00    +0.046 A 
ATOM     11  C   UNL     1       1.459  -0.095   1.491  0.00  0.00    +0.009 A 
ATOM     12  C   UNL     1       1.772  -0.549   0.201  0.00  0.00    -0.030 A 
ATOM     13  C   UNL     1       2.502   0.287  -0.660  0.00  0.00    +0.009 A 
ATOM     14  C   UNL     1       2.911   1.555  -0.238  0.00  0.00    +0.046 A 
BRANCH   9  16
ATOM     15  C   UNL     1       3.704   4.228   0.760  0.00  0.00    +0.277 C 
ATOM     16  O   UNL     1       2.978   3.273   1.526  0.00  0.00    -0.495 OA
ENDBRANCH   9  16
ENDBRANCH   8  12
ENDBRANCH   1   8
BRANCH   1  17
ATOM     17  C   UNL     1      -0.600  -0.921  -1.696  0.00  0.00    +0.122 C 
BRANCH  17  18
ATOM     18  C   UNL     1      -1.396   0.265  -1.137  0.00  0.00    +0.102 C 
BRANCH  18  19
ATOM     19  N   UNL     1      -1.677   1.249  -2.205  0.00  0.00    -0.307 NA
ATOM     20  C   UNL     1      -2.931   1.967  -1.924  0.00  0.00    +0.104 C 
ATOM     21  C   UNL     1      -0.575   2.221  -2.327  0.00  0.00    +0.104 C 
ENDBRANCH  18  19
ENDBRANCH  17  18
ENDBRANCH   1  17
TORSDOF 6
