REMARK  Name = 
REMARK  2 active torsions:
REMARK  status: ('A' for Active; 'I' for Inactive)
REMARK    1  A    between atoms: C_1  and  C_2
REMARK    2  A    between atoms: C_1  and  N_10
REMARK                            x       y       z     vdW  Elec       q    Type
REMARK                         _______ _______ _______ _____ _____    ______ ____
ROOT
ATOM      1  N   UNL     1      -0.821   0.693  -0.520  0.00  0.00    -0.298 N 
ATOM      2  C   UNL     1      -1.828  -0.310  -0.783  0.00  0.00    +0.048 A 
ATOM      3  C   UNL     1      -2.007  -0.845  -2.072  0.00  0.00    +0.024 A 
ATOM      4  C   UNL     1      -3.083  -1.698  -2.337  0.00  0.00    +0.002 A 
ATOM      5  C   UNL     1      -3.997  -2.010  -1.327  0.00  0.00    +0.001 A 
ATOM      6  C   UNL     1      -3.828  -1.485  -0.043  0.00  0.00    +0.017 A 
ATOM      7  C   UNL     1      -2.740  -0.652   0.234  0.00  0.00    +0.034 A 
ATOM      8  S   UNL     1      -2.443  -0.086   1.912  0.00  0.00    -0.086 S 
ATOM      9  C   UNL     1      -2.073   1.593   1.399  0.00  0.00    +0.034 A 
ATOM     10  C   UNL     1      -2.603   2.676   2.109  0.00  0.00    +0.017 A 
ATOM     11  C   UNL     1      -2.247   3.981   1.758  0.00  0.00    +0.001 A 
ATOM     12  C   UNL     1      -1.373   4.206   0.692  0.00  0.00    +0.002 A 
ATOM     13  C   UNL     1      -0.861   3.128  -0.037  0.00  0.00    +0.024 A 
ATOM     14  C   UNL     1      -1.203   1.810   0.314  0.00  0.00    +0.048 A 
ENDROOT
BRANCH   1  15
ATOM     15  C   UNL     1       0.517   0.628  -1.133  0.00  0.00    +0.116 C 
BRANCH  15  16
ATOM     16  C   UNL     1       1.230  -0.708  -0.816  0.00  0.00    +0.024 C 
ATOM     17  C   UNL     1       2.668  -0.745  -1.421  0.00  0.00    +0.089 C 
ATOM     18  N   UNL     1       3.676  -1.097  -0.391  0.00  0.00    -0.302 NA
ATOM     19  C   UNL     1       3.348  -2.422   0.190  0.00  0.00    +0.084 C 
ATOM     20  C   UNL     1       1.948  -2.414   0.857  0.00  0.00    +0.019 C 
ATOM     21  C   UNL     1       1.324  -1.014   0.705  0.00  0.00    -0.003 C 
ATOM     22  C   UNL     1       2.280  -0.011   1.382  0.00  0.00    +0.019 C 
ATOM     23  C   UNL     1       3.660  -0.069   0.679  0.00  0.00    +0.084 C 
ENDBRANCH  15  16
ENDBRANCH   1  15
TORSDOF 2
