REMARK  Name = 
REMARK  0 active torsions:
REMARK  status: ('A' for Active; 'I' for Inactive)
REMARK                            x       y       z     vdW  Elec       q    Type
REMARK                         _______ _______ _______ _____ _____    ______ ____
ROOT
ATOM      1  S   UNL     1      -0.308   3.076  -0.083  0.00  0.00    -0.028 S 
ATOM      2  C   UNL     1       0.327   1.570  -0.056  0.00  0.00    +0.136 A 
ATOM      3  N   UNL     1       1.681   1.390  -0.088  0.00  0.00    -0.228 NA
ATOM      4  C   UNL     1       2.235   0.135  -0.067  0.00  0.00    +0.199 A 
ATOM      5  N   UNL     1       1.436  -0.975  -0.011  0.00  0.00    -0.329 N 
ATOM      6  C   UNL     1       0.093  -0.797   0.021  0.00  0.00    +0.160 A 
ATOM      7  C   UNL     1      -0.471   0.432   0.000  0.00  0.00    +0.116 A 
ATOM      8  N   UNL     1      -1.804   0.306   0.041  0.00  0.00    -0.341 N 
ATOM      9  C   UNL     1      -1.999  -1.036   0.087  0.00  0.00    +0.199 A 
ATOM     10  N   UNL     1      -0.845  -1.758   0.076  0.00  0.00    -0.218 NA
ATOM     11  H   UNL     1       1.852  -1.933   0.006  0.00  0.00    +0.168 HD
ATOM     12  H   UNL     1      -2.529   1.057   0.039  0.00  0.00    +0.167 HD
ENDROOT
TORSDOF 0
