REMARK  Name = 
REMARK  11 active torsions:
REMARK  status: ('A' for Active; 'I' for Inactive)
REMARK    1  A    between atoms: C_1  and  C_2
REMARK    2  A    between atoms: C_2  and  C_3
REMARK    3  A    between atoms: C_2  and  O_4
REMARK    4  A    between atoms: C_8  and  C_9
REMARK    5  A    between atoms: C_9  and  O_10
REMARK    6  A    between atoms: C_12  and  S_13
REMARK    7  A    between atoms: S_13  and  C_14
REMARK    8  A    between atoms: C_17  and  C_19
REMARK    9  A    between atoms: N_21  and  C_22
REMARK   10  A    between atoms: N_21  and  C_23
REMARK   11  A    between atoms: C_24  and  C_25
REMARK                            x       y       z     vdW  Elec       q    Type
REMARK                         _______ _______ _______ _____ _____    ______ ____
ROOT
ATOM      1  C   UNL     1       4.599  -0.153   0.178  0.00  0.00    +0.125 C 
ATOM      2  C   UNL     1       4.464   1.327   0.392  0.00  0.00    +0.228 C 
ATOM      3  O   UNL     1       5.206   2.239   0.843  0.00  0.00    -0.275 OA
ATOM      4  N   UNL     1       3.055   1.248  -0.054  0.00  0.00    -0.260 N 
ATOM      5  C   UNL     1       1.836   1.571   0.558  0.00  0.00    +0.131 C 
ATOM      6  C   UNL     1       1.215   0.441   0.859  0.00  0.00    +0.019 C 
ATOM      7  C   UNL     1       2.020  -0.770   0.400  0.00  0.00    +0.046 C 
ATOM      8  C   UNL     1       2.371  -1.679   1.582  0.00  0.00    +0.015 C 
ATOM      9  C   UNL     1       3.244  -0.141  -0.354  0.00  0.00    +0.104 C 
ENDROOT
BRANCH   1  10
ATOM     10  C   UNL     1       5.706  -0.568  -0.827  0.00  0.00    +0.125 C 
ATOM     11  C   UNL     1       5.904   0.382  -2.024  0.00  0.00    +0.038 C 
BRANCH  10  12
ATOM     12  O   UNL     1       6.926  -0.743  -0.154  0.00  0.00    -0.391 OA
ATOM     13  H   UNL     1       7.171   0.131   0.247  0.00  0.00    +0.210 HD
ENDBRANCH  10  12
ENDBRANCH   1  10
BRANCH   5  14
ATOM     14  C   UNL     1       1.451   2.918   0.979  0.00  0.00    +0.352 C 
ATOM     15  O   UNL     1       0.885   3.692   0.162  0.00  0.00    -0.244 OA
BRANCH  14  16
ATOM     16  O   UNL     1       1.702   3.333   2.282  0.00  0.00    -0.476 OA
ATOM     17  H   UNL     1       1.417   4.254   2.597  0.00  0.00    +0.295 HD
ENDBRANCH  14  16
ENDBRANCH   5  14
BRANCH   6  18
ATOM     18  S   UNL     1      -0.372   0.340   1.696  0.00  0.00    -0.122 S 
BRANCH  18  19
ATOM     19  C   UNL     1      -1.375   0.479   0.162  0.00  0.00    +0.067 C 
ATOM     20  C   UNL     1      -2.220   1.753   0.197  0.00  0.00    +0.096 C 
ATOM     21  N   UNL     1      -3.596   1.370   0.496  0.00  0.00    -0.305 NA
ATOM     22  C   UNL     1      -3.743   0.023  -0.060  0.00  0.00    +0.142 C 
ATOM     23  C   UNL     1      -2.384  -0.663   0.070  0.00  0.00    +0.044 C 
ATOM     24  H   UNL     1      -3.682   1.332   1.540  0.00  0.00    +0.123 HD
BRANCH  22  25
ATOM     25  C   UNL     1      -4.848  -0.757   0.631  0.00  0.00    +0.232 C 
ATOM     26  O   UNL     1      -4.792  -0.887   1.888  0.00  0.00    -0.274 OA
ATOM     27  N   UNL     1      -5.937  -1.375  -0.096  0.00  0.00    -0.306 N 
ATOM     28  C   UNL     1      -6.048  -1.270  -1.557  0.00  0.00    +0.131 C 
ATOM     29  C   UNL     1      -6.955  -2.118   0.658  0.00  0.00    +0.131 C 
ENDBRANCH  22  25
ENDBRANCH  18  19
ENDBRANCH   6  18
TORSDOF 7
