REMARK  Name = 
REMARK  4 active torsions:
REMARK  status: ('A' for Active; 'I' for Inactive)
REMARK    1  A    between atoms: N_1  and  C_2
REMARK    2  A    between atoms: C_4  and  C_5
REMARK    3  A    between atoms: C_5  and  O_6
REMARK    4  A    between atoms: C_8  and  O_9
REMARK                            x       y       z     vdW  Elec       q    Type
REMARK                         _______ _______ _______ _____ _____    ______ ____
ROOT
ATOM      1  C   UNL     1      -1.601  -0.385  -0.344  0.00  0.00    +0.026 A 
ATOM      2  C   UNL     1      -0.376  -1.055  -0.229  0.00  0.00    +0.041 A 
ATOM      3  C   UNL     1       0.805  -0.355   0.089  0.00  0.00    +0.102 A 
ATOM      4  C   UNL     1       0.735   1.043   0.291  0.00  0.00    +0.131 A 
ATOM      5  C   UNL     1      -0.495   1.706   0.173  0.00  0.00    +0.048 A 
ATOM      6  C   UNL     1      -1.655   0.998  -0.142  0.00  0.00    +0.026 A 
ENDROOT
BRANCH   1   7
ATOM      7  N   UNL     1      -2.791  -1.110  -0.668  0.00  0.00    -0.358 N 
ATOM      8  H   UNL     1      -3.708  -0.620  -0.756  0.00  0.00    +0.142 HD
ATOM      9  H   UNL     1      -2.763  -2.143  -0.821  0.00  0.00    +0.142 HD
ENDBRANCH   1   7
BRANCH   3  10
ATOM     10  C   UNL     1       2.088  -1.097   0.204  0.00  0.00    +0.340 C 
ATOM     11  O   UNL     1       2.118  -2.344   0.019  0.00  0.00    -0.245 OA
BRANCH  10  12
ATOM     12  O   UNL     1       3.272  -0.435   0.517  0.00  0.00    -0.477 OA
ATOM     13  H   UNL     1       4.147  -0.940   0.596  0.00  0.00    +0.295 HD
ENDBRANCH  10  12
ENDBRANCH   3  10
BRANCH   4  14
ATOM     14  O   UNL     1       1.878   1.778   0.607  0.00  0.00    -0.506 OA
ATOM     15  H   UNL     1       1.844   2.780   0.754  0.00  0.00    +0.292 HD
ENDBRANCH   4  14
TORSDOF 4
