REMARK  Name = 
REMARK  6 active torsions:
REMARK  status: ('A' for Active; 'I' for Inactive)
REMARK    1  A    between atoms: C_1  and  N_2
REMARK    2  A    between atoms: C_7  and  C_8
REMARK    3  A    between atoms: C_8  and  C_9
REMARK    4  A    between atoms: C_9  and  N_10
REMARK    5  A    between atoms: C_21  and  S_24
REMARK    6  A    between atoms: S_24  and  C_25
REMARK                            x       y       z     vdW  Elec       q    Type
REMARK                         _______ _______ _______ _____ _____    ______ ____
ROOT
ATOM      1  N   UNL     1      -0.628   0.865   0.826  0.00  0.00    -0.298 N 
ATOM      2  C   UNL     1      -0.488   2.251   0.441  0.00  0.00    +0.048 A 
ATOM      3  C   UNL     1      -0.074   3.223   1.369  0.00  0.00    +0.024 A 
ATOM      4  C   UNL     1      -0.096   4.578   1.027  0.00  0.00    +0.002 A 
ATOM      5  C   UNL     1      -0.551   4.977  -0.233  0.00  0.00    +0.001 A 
ATOM      6  C   UNL     1      -0.973   4.020  -1.160  0.00  0.00    +0.017 A 
ATOM      7  C   UNL     1      -0.930   2.661  -0.831  0.00  0.00    +0.034 A 
ATOM      8  S   UNL     1      -1.367   1.425  -2.056  0.00  0.00    -0.086 S 
ATOM      9  C   UNL     1      -2.337   0.454  -0.898  0.00  0.00    +0.034 A 
ATOM     10  C   UNL     1      -1.811   0.168   0.376  0.00  0.00    +0.049 A 
ATOM     11  C   UNL     1      -2.521  -0.690   1.234  0.00  0.00    +0.041 A 
ATOM     12  C   UNL     1      -3.740  -1.249   0.826  0.00  0.00    +0.040 A 
ATOM     13  C   UNL     1      -4.265  -0.932  -0.431  0.00  0.00    +0.018 A 
ATOM     14  C   UNL     1      -3.567  -0.080  -1.290  0.00  0.00    +0.018 A 
ENDROOT
BRANCH  12  15
ATOM     15  S   UNL     1      -4.639  -2.344   1.902  0.00  0.00    +0.051 S 
ATOM     16  C   UNL     1      -3.521  -3.724   2.209  0.00  0.00    +0.127 C 
ATOM     17  O   UNL     1      -4.710  -1.597   3.227  0.00  0.00    -0.252 OA
ENDBRANCH  12  15
BRANCH   1  18
ATOM     18  C   UNL     1       0.382   0.209   1.674  0.00  0.00    +0.112 C 
BRANCH  18  19
ATOM     19  C   UNL     1       0.929  -1.075   1.023  0.00  0.00    +0.038 C 
BRANCH  19  26
ATOM     20  C   UNL     1       3.726  -0.041   0.506  0.00  0.00    +0.105 C 
ATOM     21  N   UNL     1       2.583   0.218  -0.395  0.00  0.00    -0.302 NA
ATOM     22  C   UNL     1       3.034   0.490  -1.778  0.00  0.00    +0.084 C 
ATOM     23  C   UNL     1       3.552  -0.775  -2.485  0.00  0.00    +0.015 C 
ATOM     24  C   UNL     1       2.506  -1.893  -2.453  0.00  0.00    +0.003 C 
ATOM     25  C   UNL     1       2.008  -2.148  -1.026  0.00  0.00    +0.019 C 
ATOM     26  C   UNL     1       1.527  -0.831  -0.382  0.00  0.00    +0.058 C 
ENDBRANCH  19  26
ENDBRANCH  18  19
ENDBRANCH   1  18
TORSDOF 4
