REMARK  Name = 
REMARK  5 active torsions:
REMARK  status: ('A' for Active; 'I' for Inactive)
REMARK    1  A    between atoms: C_4  and  O_5
REMARK    2  A    between atoms: C_4  and  C_6
REMARK    3  A    between atoms: C_8  and  C_9
REMARK    4  A    between atoms: C_19  and  O_20
REMARK    5  A    between atoms: O_20  and  C_21
REMARK                            x       y       z     vdW  Elec       q    Type
REMARK                         _______ _______ _______ _____ _____    ______ ____
ROOT
ATOM      1  C   UNL     1      -1.852   0.216   0.633  0.00  0.00    +0.002 C 
ATOM      2  C   UNL     1      -2.860  -0.379   1.610  0.00  0.00    +0.008 C 
ATOM      3  C   UNL     1      -4.234  -0.085   0.977  0.00  0.00    +0.049 C 
ATOM      4  C   UNL     1      -3.970   0.508  -0.438  0.00  0.00    +0.132 C 
ATOM      5  C   UNL     1      -2.508   0.057  -0.749  0.00  0.00    +0.011 C 
ATOM      6  C   UNL     1      -2.536  -1.425  -1.256  0.00  0.00    +0.015 C 
ATOM      7  C   UNL     1      -1.707   0.919  -1.760  0.00  0.00    +0.011 C 
ATOM      8  C   UNL     1      -0.204   0.539  -1.774  0.00  0.00    +0.009 C 
ATOM      9  C   UNL     1       0.441   0.542  -0.354  0.00  0.00    +0.023 C 
ATOM     10  C   UNL     1       1.906   0.100  -0.330  0.00  0.00    -0.041 A 
ATOM     11  C   UNL     1       2.461  -0.475   0.846  0.00  0.00    -0.040 A 
ATOM     12  C   UNL     1       1.617  -0.828   2.052  0.00  0.00    +0.036 C 
ATOM     13  C   UNL     1       0.236  -0.168   2.047  0.00  0.00    +0.009 C 
ATOM     14  C   UNL     1      -0.398  -0.296   0.656  0.00  0.00    +0.000 C 
ATOM     15  C   UNL     1       3.824  -0.811   0.883  0.00  0.00    +0.049 A 
ATOM     16  C   UNL     1       4.663  -0.547  -0.201  0.00  0.00    +0.120 A 
ATOM     17  C   UNL     1       4.129   0.065  -1.344  0.00  0.00    +0.046 A 
ATOM     18  C   UNL     1       2.775   0.396  -1.402  0.00  0.00    +0.008 A 
ENDROOT
BRANCH   4  19
ATOM     19  O   UNL     1      -4.878  -0.004  -1.386  0.00  0.00    -0.376 OA
ATOM     20  H   UNL     1      -5.796   0.185  -1.057  0.00  0.00    +0.211 HD
ENDBRANCH   4  19
BRANCH   4  21
ATOM     21  C   UNL     1      -4.111   1.985  -0.393  0.00  0.00    -0.070 C 
ATOM     22  C   UNL     1      -4.228   3.185  -0.354  0.00  0.00    +0.007 C 
ENDBRANCH   4  21
BRANCH  16  23
ATOM     23  O   UNL     1       6.016  -0.905  -0.099  0.00  0.00    -0.495 OA
ATOM     24  C   UNL     1       6.982  -0.696  -1.124  0.00  0.00    +0.277 C 
ENDBRANCH  16  23
TORSDOF 3
