REMARK  Name = 
REMARK  5 active torsions:
REMARK  status: ('A' for Active; 'I' for Inactive)
REMARK    1  A    between atoms: C_1  and  C_2
REMARK    2  A    between atoms: C_4  and  O_5
REMARK    3  A    between atoms: O_5  and  C_6
REMARK    4  A    between atoms: C_6  and  C_7
REMARK    5  A    between atoms: C_14  and  C_15
REMARK                            x       y       z     vdW  Elec       q    Type
REMARK                         _______ _______ _______ _____ _____    ______ ____
ROOT
ATOM      1  O   UNL     1       0.806  -0.348  -0.592  0.00  0.00    -0.488 OA
ENDROOT
BRANCH   1   5
ATOM      2  C   UNL     1      -3.443  -2.828  -0.631  0.00  0.00    +0.044 C 
ATOM      3  C   UNL     1      -2.695  -1.536  -0.485  0.00  0.00    -0.047 A 
ATOM      4  C   UNL     1      -1.298  -1.513  -0.598  0.00  0.00    +0.049 A 
ATOM      5  C   UNL     1      -0.592  -0.309  -0.490  0.00  0.00    +0.121 A 
ATOM      6  C   UNL     1      -1.301   0.890  -0.284  0.00  0.00    +0.049 A 
ATOM      7  C   UNL     1      -2.701   0.882  -0.207  0.00  0.00    -0.047 A 
ATOM      8  C   UNL     1      -3.450   2.159   0.041  0.00  0.00    +0.044 C 
ATOM      9  C   UNL     1      -3.394  -0.334  -0.298  0.00  0.00    +0.007 A 
ENDBRANCH   1   5
BRANCH   1  10
ATOM     10  C   UNL     1       1.656   0.793  -0.494  0.00  0.00    +0.275 C 
BRANCH  10  11
ATOM     11  C   UNL     1       3.115   0.365  -0.650  0.00  0.00    +0.232 C 
ATOM     12  C   UNL     1       3.594  -0.569   0.501  0.00  0.00    +0.155 C 
ATOM     13  N   UNL     1       4.718   0.123   1.111  0.00  0.00    -0.277 N 
ATOM     14  C   UNL     1       4.880   1.341   0.425  0.00  0.00    +0.401 C 
ATOM     15  O   UNL     1       5.766   2.189   0.712  0.00  0.00    -0.226 OA
ATOM     16  O   UNL     1       3.965   1.507  -0.587  0.00  0.00    -0.442 OA
ATOM     17  H   UNL     1       5.292  -0.216   1.914  0.00  0.00    +0.152 HD
ENDBRANCH  10  11
ENDBRANCH   1  10
TORSDOF 3
