REMARK  Name = 
REMARK  6 active torsions:
REMARK  status: ('A' for Active; 'I' for Inactive)
REMARK    1  A    between atoms: C_1  and  C_2
REMARK    2  A    between atoms: C_2  and  N_3
REMARK    3  A    between atoms: C_2  and  C_4
REMARK    4  A    between atoms: C_4  and  O_5
REMARK    5  A    between atoms: C_4  and  C_6
REMARK    6  A    between atoms: C_8  and  O_9
REMARK                            x       y       z     vdW  Elec       q    Type
REMARK                         _______ _______ _______ _____ _____    ______ ____
ROOT
ATOM      1  C   UNL     1      -0.694   0.851   0.733  0.00  0.00    +0.161 C 
ENDROOT
BRANCH   1   2
ATOM      2  C   UNL     1       0.584   0.072   0.491  0.00  0.00    -0.014 A 
ATOM      3  C   UNL     1       1.359   0.275  -0.668  0.00  0.00    +0.051 A 
ATOM      4  C   UNL     1       2.520  -0.480  -0.887  0.00  0.00    +0.117 A 
ATOM      5  C   UNL     1       2.908  -1.446   0.046  0.00  0.00    +0.045 A 
ATOM      6  C   UNL     1       2.139  -1.664   1.191  0.00  0.00    +0.004 A 
ATOM      7  C   UNL     1       0.981  -0.914   1.411  0.00  0.00    +0.006 A 
BRANCH   4   8
ATOM      8  O   UNL     1       3.292  -0.280  -2.030  0.00  0.00    -0.507 OA
ATOM      9  H   UNL     1       3.038   0.411  -2.726  0.00  0.00    +0.292 HD
ENDBRANCH   4   8
ENDBRANCH   1   2
BRANCH   1  11
ATOM     10  C   UNL     1      -1.953  -0.062  -1.318  0.00  0.00    +0.026 C 
ATOM     11  C   UNL     1      -1.935   0.075   0.210  0.00  0.00    +0.081 C 
BRANCH  11  12
ATOM     12  N   UNL     1      -3.181   0.702   0.658  0.00  0.00    -0.325 NA
ATOM     13  H   UNL     1      -3.187   0.740   1.703  0.00  0.00    +0.119 HD
ATOM     14  H   UNL     1      -3.229   1.685   0.304  0.00  0.00    +0.119 HD
ENDBRANCH  11  12
ENDBRANCH   1  11
BRANCH   1  15
ATOM     15  O   UNL     1      -0.608   2.123   0.136  0.00  0.00    -0.386 OA
ATOM     16  H   UNL     1      -1.131   2.751   0.700  0.00  0.00    +0.210 HD
ENDBRANCH   1  15
TORSDOF 5
