REMARK  Name = 
REMARK  2 active torsions:
REMARK  status: ('A' for Active; 'I' for Inactive)
REMARK    1  A    between atoms: C_1  and  N_2
REMARK    2  A    between atoms: N_2  and  C_3
REMARK                            x       y       z     vdW  Elec       q    Type
REMARK                         _______ _______ _______ _____ _____    ______ ____
ROOT
ATOM      1  C   UNL     1      -2.610  -0.718  -0.463  0.00  0.00    +0.145 C 
ATOM      2  N   UNL     1      -1.413  -0.159   0.176  0.00  0.00    -0.348 N 
ATOM      3  C   UNL     1      -1.539   0.514   1.474  0.00  0.00    +0.145 C 
ATOM      4  C   UNL     1      -0.110  -0.273  -0.448  0.00  0.00    +0.199 C 
ATOM      5  N   UNL     1       0.078  -1.063  -1.463  0.00  0.00    -0.268 NA
ATOM      6  N   UNL     1       0.987   0.530   0.024  0.00  0.00    -0.298 N 
ATOM      7  C   UNL     1       2.372   0.207  -0.189  0.00  0.00    +0.194 C 
ATOM      8  N   UNL     1       3.333   1.259  -0.276  0.00  0.00    -0.370 N 
ATOM      9  N   UNL     1       2.776  -1.024  -0.231  0.00  0.00    -0.268 NA
ATOM     10  H   UNL     1      -0.662  -1.672  -1.874  0.00  0.00    +0.190 HD
ATOM     11  H   UNL     1       0.775   1.455   0.459  0.00  0.00    +0.172 HD
ATOM     12  H   UNL     1       3.031   2.257  -0.224  0.00  0.00    +0.159 HD
ATOM     13  H   UNL     1       4.347   1.043  -0.400  0.00  0.00    +0.159 HD
ATOM     14  H   UNL     1       2.130  -1.836  -0.120  0.00  0.00    +0.190 HD
ENDROOT
TORSDOF 0
