REMARK  Name = 
REMARK  4 active torsions:
REMARK  status: ('A' for Active; 'I' for Inactive)
REMARK    1  A    between atoms: C_1  and  C_2
REMARK    2  A    between atoms: C_2  and  C_3
REMARK    3  A    between atoms: C_3  and  C_13
REMARK    4  A    between atoms: N_9  and  C_10
REMARK                            x       y       z     vdW  Elec       q    Type
REMARK                         _______ _______ _______ _____ _____    ______ ____
ROOT
ATOM      1  C   UNL     1      -0.011   0.483  -0.202  0.00  0.00    +0.148 C 
ATOM      2  C   UNL     1      -0.530   0.844  -1.584  0.00  0.00    +0.240 C 
ATOM      3  O   UNL     1       0.288   1.055  -2.522  0.00  0.00    -0.274 OA
ATOM      4  N   UNL     1      -1.924   1.040  -1.831  0.00  0.00    -0.239 N 
ATOM      5  C   UNL     1      -2.902   0.786  -0.827  0.00  0.00    +0.315 C 
ATOM      6  O   UNL     1      -4.115   1.028  -1.069  0.00  0.00    -0.252 OA
ATOM      7  N   UNL     1      -2.506   0.238   0.439  0.00  0.00    -0.228 N 
ATOM      8  C   UNL     1      -3.521  -0.125   1.434  0.00  0.00    +0.143 C 
ATOM      9  C   UNL     1      -1.127  -0.117   0.652  0.00  0.00    +0.242 C 
ATOM     10  O   UNL     1      -0.825  -0.877   1.615  0.00  0.00    -0.274 OA
ATOM     11  H   UNL     1      -2.233   1.377  -2.771  0.00  0.00    +0.159 HD
ENDROOT
BRANCH   1  12
ATOM     12  C   UNL     1       1.123  -0.548  -0.395  0.00  0.00    -0.024 A 
ATOM     13  C   UNL     1       0.795  -1.885  -0.721  0.00  0.00    +0.005 A 
ATOM     14  C   UNL     1       1.792  -2.833  -0.965  0.00  0.00    +0.000 A 
ATOM     15  C   UNL     1       3.135  -2.462  -0.921  0.00  0.00    +0.000 A 
ATOM     16  C   UNL     1       3.483  -1.140  -0.649  0.00  0.00    +0.000 A 
ATOM     17  C   UNL     1       2.490  -0.185  -0.405  0.00  0.00    +0.005 A 
ENDBRANCH   1  12
BRANCH   1  19
ATOM     18  C   UNL     1       0.959   1.663   1.912  0.00  0.00    +0.006 C 
ATOM     19  C   UNL     1       0.434   1.815   0.477  0.00  0.00    +0.027 C 
ENDBRANCH   1  19
TORSDOF 2
