REMARK  Name = 
REMARK  9 active torsions:
REMARK  status: ('A' for Active; 'I' for Inactive)
REMARK    1  A    between atoms: C_1  and  O_2
REMARK    2  A    between atoms: O_2  and  C_3
REMARK    3  A    between atoms: C_5  and  C_6
REMARK    4  A    between atoms: C_6  and  O_7
REMARK    5  A    between atoms: C_6  and  C_8
REMARK    6  A    between atoms: C_8  and  C_9
REMARK    7  A    between atoms: C_8  and  N_10
REMARK    8  A    between atoms: C_11  and  O_12
REMARK    9  A    between atoms: O_12  and  C_13
REMARK                            x       y       z     vdW  Elec       q    Type
REMARK                         _______ _______ _______ _____ _____    ______ ____
ROOT
ATOM      1  C   UNL     1       1.731  -1.078   0.611  0.00  0.00    +0.121 A 
ATOM      2  C   UNL     1       0.412  -0.756   0.940  0.00  0.00    +0.055 A 
ATOM      3  C   UNL     1      -0.216   0.385   0.403  0.00  0.00    +0.027 A 
ATOM      4  C   UNL     1       0.502   1.210  -0.491  0.00  0.00    +0.126 A 
ATOM      5  C   UNL     1       1.831   0.882  -0.818  0.00  0.00    +0.049 A 
ATOM      6  C   UNL     1       2.440  -0.249  -0.273  0.00  0.00    +0.049 A 
ENDROOT
BRANCH   1   8
ATOM      7  C   UNL     1       3.626  -2.678   0.934  0.00  0.00    +0.277 C 
ATOM      8  O   UNL     1       2.298  -2.229   1.181  0.00  0.00    -0.495 OA
ENDBRANCH   1   8
BRANCH   4   9
ATOM      9  O   UNL     1      -0.131   2.341  -1.037  0.00  0.00    -0.495 OA
ATOM     10  C   UNL     1       0.472   3.239  -1.963  0.00  0.00    +0.277 C 
ENDBRANCH   4   9
BRANCH   3  11
ATOM     11  C   UNL     1      -1.663   0.698   0.761  0.00  0.00    +0.164 C 
BRANCH  11  12
ATOM     12  O   UNL     1      -1.911   0.344   2.099  0.00  0.00    -0.386 OA
ATOM     13  H   UNL     1      -2.750   0.800   2.372  0.00  0.00    +0.210 HD
ENDBRANCH  11  12
BRANCH  11  14
ATOM     14  C   UNL     1      -2.681  -0.001  -0.179  0.00  0.00    +0.081 C 
ATOM     15  C   UNL     1      -2.613  -1.537  -0.117  0.00  0.00    +0.026 C 
BRANCH  14  16
ATOM     16  N   UNL     1      -2.524   0.474  -1.557  0.00  0.00    -0.325 NA
ATOM     17  H   UNL     1      -1.673   0.042  -1.983  0.00  0.00    +0.119 HD
ATOM     18  H   UNL     1      -3.345   0.147  -2.117  0.00  0.00    +0.119 HD
ENDBRANCH  14  16
ENDBRANCH  11  14
ENDBRANCH   3  11
TORSDOF 6
