REMARK  Name = 
REMARK  7 active torsions:
REMARK  status: ('A' for Active; 'I' for Inactive)
REMARK    1  A    between atoms: C_1  and  O_2
REMARK    2  A    between atoms: O_2  and  C_3
REMARK    3  A    between atoms: C_3  and  C_5
REMARK    4  A    between atoms: C_5  and  C_6
REMARK    5  A    between atoms: C_6  and  C_7
REMARK    6  A    between atoms: C_7  and  C_9
REMARK    7  A    between atoms: C_9  and  N_10
REMARK                            x       y       z     vdW  Elec       q    Type
REMARK                         _______ _______ _______ _____ _____    ______ ____
ROOT
ATOM      1  C   UNL     1      -0.872  -1.178  -0.701  0.00  0.00    +0.087 C 
ENDROOT
BRANCH   1   2
ATOM      2  C   UNL     1      -1.244   0.223  -0.289  0.00  0.00    +0.147 C 
ATOM      3  O   UNL     1      -1.424   0.476   0.893  0.00  0.00    -0.296 OA
BRANCH   2   4
ATOM      4  C   UNL     1      -1.346   1.327  -1.310  0.00  0.00    +0.152 C 
BRANCH   4   5
ATOM      5  N   UNL     1      -2.710   1.842  -1.397  0.00  0.00    -0.324 NA
ATOM      6  H   UNL     1      -2.988   2.224  -0.464  0.00  0.00    +0.119 HD
ATOM      7  H   UNL     1      -3.355   1.049  -1.621  0.00  0.00    +0.119 HD
ENDBRANCH   4   5
ENDBRANCH   2   4
ENDBRANCH   1   2
BRANCH   1   8
ATOM      8  C   UNL     1       0.638  -1.323  -0.920  0.00  0.00    +0.128 C 
BRANCH   8   9
ATOM      9  C   UNL     1       1.398  -1.149   0.359  0.00  0.00    +0.307 C 
ATOM     10  O   UNL     1       1.546  -2.129   1.139  0.00  0.00    -0.251 OA
BRANCH   9  12
ATOM     11  C   UNL     1       2.594   0.361   1.909  0.00  0.00    +0.280 C 
ATOM     12  O   UNL     1       1.899   0.112   0.694  0.00  0.00    -0.468 OA
ENDBRANCH   9  12
ENDBRANCH   8   9
ENDBRANCH   1   8
TORSDOF 6
