REMARK  Name = 
REMARK  5 active torsions:
REMARK  status: ('A' for Active; 'I' for Inactive)
REMARK    1  A    between atoms: C_1  and  C_2
REMARK    2  A    between atoms: C_2  and  C_3
REMARK    3  A    between atoms: C_3  and  C_4
REMARK    4  A    between atoms: C_4  and  C_5
REMARK    5  A    between atoms: N_11  and  C_12
REMARK                            x       y       z     vdW  Elec       q    Type
REMARK                         _______ _______ _______ _____ _____    ______ ____
ROOT
ATOM      1  C   UNL     1       0.533  -0.047  -0.083  0.00  0.00    +0.123 C 
ATOM      2  C   UNL     1       0.373   0.176   1.416  0.00  0.00    +0.235 C 
ATOM      3  O   UNL     1       1.328  -0.080   2.200  0.00  0.00    -0.274 OA
ATOM      4  N   UNL     1      -0.818   0.753   1.950  0.00  0.00    -0.239 N 
ATOM      5  C   UNL     1      -2.005   0.838   1.168  0.00  0.00    +0.315 C 
ATOM      6  O   UNL     1      -3.019   1.416   1.644  0.00  0.00    -0.252 OA
ATOM      7  N   UNL     1      -2.046   0.246  -0.140  0.00  0.00    -0.228 N 
ATOM      8  C   UNL     1      -3.303   0.232  -0.897  0.00  0.00    +0.143 C 
ATOM      9  C   UNL     1      -0.828  -0.217  -0.756  0.00  0.00    +0.238 C 
ATOM     10  O   UNL     1      -0.870  -0.697  -1.923  0.00  0.00    -0.274 OA
ATOM     11  H   UNL     1      -0.834   1.072   2.945  0.00  0.00    +0.159 HD
ENDROOT
BRANCH   1  13
ATOM     12  C   UNL     1       0.779  -2.620   0.146  0.00  0.00    +0.005 C 
ATOM     13  C   UNL     1       1.410  -1.313  -0.351  0.00  0.00    +0.022 C 
ENDBRANCH   1  13
BRANCH   1  14
ATOM     14  C   UNL     1       1.182   1.216  -0.725  0.00  0.00    +0.022 C 
ATOM     15  C   UNL     1       2.572   1.588  -0.196  0.00  0.00    +0.005 C 
ENDBRANCH   1  14
TORSDOF 2
