REMARK  Name = 
REMARK  8 active torsions:
REMARK  status: ('A' for Active; 'I' for Inactive)
REMARK    1  A    between atoms: N_5  and  C_6
REMARK    2  A    between atoms: C_15  and  C_19
REMARK    3  A    between atoms: N_17  and  C_18
REMARK    4  A    between atoms: N_21  and  CA_22
REMARK    5  A    between atoms: CA_22  and  C_23
REMARK    6  A    between atoms: CA_22  and  C_25
REMARK    7  A    between atoms: C_23  and  C_24
REMARK    8  A    between atoms: C_25  and  O_26
REMARK                            x       y       z     vdW  Elec       q    Type
REMARK                         _______ _______ _______ _____ _____    ______ ____
ROOT
ATOM      1  C   UNL     1      -1.165   1.415   0.803  0.00  0.00    +0.091 C 
ATOM      2  C   UNL     1      -2.512   1.877   1.456  0.00  0.00    +0.061 C 
ATOM      3  C   UNL     1      -3.666   1.466   0.598  0.00  0.00    -0.020 A 
ATOM      4  C   UNL     1      -5.003   1.850   0.623  0.00  0.00    +0.090 A 
ATOM      5  N   UNL     1      -5.731   1.021  -0.174  0.00  0.00    -0.349 N 
ATOM      6  C   UNL     1      -7.181   1.034  -0.332  0.00  0.00    +0.149 C 
ATOM      7  C   UNL     1      -4.867   0.099  -0.652  0.00  0.00    +0.050 A 
ATOM      8  C   UNL     1      -3.615   0.359  -0.189  0.00  0.00    +0.011 A 
ATOM      9  C   UNL     1      -2.514  -0.445  -0.417  0.00  0.00    -0.011 A 
ATOM     10  C   UNL     1      -2.729  -1.593  -1.221  0.00  0.00    +0.009 A 
ATOM     11  C   UNL     1      -4.025  -1.880  -1.721  0.00  0.00    +0.003 A 
ATOM     12  C   UNL     1      -5.117  -1.033  -1.430  0.00  0.00    +0.026 A 
ATOM     13  C   UNL     1      -1.221  -0.002   0.193  0.00  0.00    -0.025 C 
ATOM     14  C   UNL     1      -0.097  -0.733   0.080  0.00  0.00    -0.007 C 
ATOM     15  C   UNL     1       1.229  -0.290   0.649  0.00  0.00    +0.112 C 
ATOM     16  C   UNL     1       1.238   1.206   1.023  0.00  0.00    +0.101 C 
ATOM     17  N   UNL     1      -0.005   1.607   1.711  0.00  0.00    -0.297 NA
ATOM     18  C   UNL     1      -0.145   0.930   3.018  0.00  0.00    +0.105 C 
ENDROOT
BRANCH  15  19
ATOM     19  C   UNL     1       2.347  -0.581  -0.317  0.00  0.00    +0.221 C 
ATOM     20  O   UNL     1       2.196  -0.325  -1.544  0.00  0.00    -0.275 OA
ATOM     21  N   UNL     1       3.602  -1.080   0.170  0.00  0.00    -0.310 N 
ATOM     22  H   UNL     1       3.717  -1.224   1.199  0.00  0.00    +0.149 HD
BRANCH  21  23
ATOM     23  CA  UNL     1       4.780  -1.253  -0.687  0.00  0.00    +0.098 C 
BRANCH  23  24
ATOM     24  C   UNL     1       5.816  -0.152  -0.386  0.00  0.00    +0.021 C 
ATOM     25  C   UNL     1       5.286   1.242  -0.717  0.00  0.00    +0.006 C 
ENDBRANCH  23  24
BRANCH  23  26
ATOM     26  C   UNL     1       5.374  -2.648  -0.449  0.00  0.00    +0.178 C 
BRANCH  26  27
ATOM     27  O   UNL     1       6.407  -2.897  -1.363  0.00  0.00    -0.393 OA
ATOM     28  H   UNL     1       6.749  -3.804  -1.151  0.00  0.00    +0.209 HD
ENDBRANCH  26  27
ENDBRANCH  23  26
ENDBRANCH  21  23
ENDBRANCH  15  19
TORSDOF 5
