REMARK  Name = 
REMARK  5 active torsions:
REMARK  status: ('A' for Active; 'I' for Inactive)
REMARK    1  A    between atoms: C_1  and  O_2
REMARK    2  A    between atoms: O_2  and  C_3
REMARK    3  A    between atoms: C_3  and  C_5
REMARK    4  A    between atoms: C_5  and  C_6
REMARK    5  A    between atoms: C_5  and  C_12
REMARK                            x       y       z     vdW  Elec       q    Type
REMARK                         _______ _______ _______ _____ _____    ______ ____
ROOT
ATOM      1  C   UNL     1      -0.325   0.451  -0.261  0.00  0.00    +0.144 C 
ENDROOT
BRANCH   1   2
ATOM      2  C   UNL     1       0.962   0.081   0.525  0.00  0.00    +0.072 C 
ATOM      3  C   UNL     1       1.362  -1.404   0.298  0.00  0.00    +0.020 C 
ATOM      4  C   UNL     1       2.860  -1.605   0.526  0.00  0.00    +0.003 C 
ATOM      5  C   UNL     1       3.686  -0.740  -0.441  0.00  0.00    +0.015 C 
ATOM      6  C   UNL     1       2.937   0.533  -0.878  0.00  0.00    +0.081 C 
ATOM      7  N   UNL     1       2.051   1.029   0.185  0.00  0.00    -0.312 NA
ATOM      8  H   UNL     1       2.630   1.211   1.039  0.00  0.00    +0.122 HD
ENDBRANCH   1   2
BRANCH   1   9
ATOM      9  C   UNL     1      -1.490  -0.461   0.082  0.00  0.00    -0.032 A 
ATOM     10  C   UNL     1      -2.055  -1.284  -0.910  0.00  0.00    +0.004 A 
ATOM     11  C   UNL     1      -3.120  -2.135  -0.602  0.00  0.00    +0.000 A 
ATOM     12  C   UNL     1      -3.633  -2.175   0.697  0.00  0.00    +0.000 A 
ATOM     13  C   UNL     1      -3.081  -1.363   1.690  0.00  0.00    +0.000 A 
ATOM     14  C   UNL     1      -2.015  -0.511   1.388  0.00  0.00    +0.004 A 
ENDBRANCH   1   9
BRANCH   1  15
ATOM     15  C   UNL     1      -0.725   1.889  -0.052  0.00  0.00    +0.316 C 
ATOM     16  O   UNL     1      -0.669   2.408   1.097  0.00  0.00    -0.250 OA
BRANCH  15  18
ATOM     17  C   UNL     1      -1.618   3.982  -1.021  0.00  0.00    +0.280 C 
ATOM     18  O   UNL     1      -1.201   2.628  -1.139  0.00  0.00    -0.467 OA
ENDBRANCH  15  18
ENDBRANCH   1  15
TORSDOF 4
