REMARK  Name = 
REMARK  7 active torsions:
REMARK  status: ('A' for Active; 'I' for Inactive)
REMARK    1  A    between atoms: C_14  and  C_18
REMARK    2  A    between atoms: N_16  and  C_17
REMARK    3  A    between atoms: N_20  and  CA_21
REMARK    4  A    between atoms: CA_21  and  C_22
REMARK    5  A    between atoms: CA_21  and  C_24
REMARK    6  A    between atoms: C_22  and  C_23
REMARK    7  A    between atoms: C_24  and  O_25
REMARK                            x       y       z     vdW  Elec       q    Type
REMARK                         _______ _______ _______ _____ _____    ______ ____
ROOT
ATOM      1  C   UNL     1       1.763  -1.364   0.267  0.00  0.00    +0.091 C 
ATOM      2  C   UNL     1       3.312  -1.464   0.499  0.00  0.00    +0.061 C 
ATOM      3  C   UNL     1       4.000  -0.198   0.088  0.00  0.00    -0.020 A 
ATOM      4  C   UNL     1       5.337   0.087  -0.176  0.00  0.00    +0.087 A 
ATOM      5  N   UNL     1       5.493   1.423  -0.377  0.00  0.00    -0.360 N 
ATOM      6  C   UNL     1       4.269   1.965  -0.218  0.00  0.00    +0.047 A 
ATOM      7  C   UNL     1       3.885   3.304  -0.274  0.00  0.00    +0.026 A 
ATOM      8  C   UNL     1       2.526   3.604  -0.024  0.00  0.00    +0.003 A 
ATOM      9  C   UNL     1       1.601   2.573   0.286  0.00  0.00    +0.009 A 
ATOM     10  C   UNL     1       2.036   1.226   0.346  0.00  0.00    -0.011 A 
ATOM     11  C   UNL     1       3.365   0.996   0.071  0.00  0.00    +0.010 A 
ATOM     12  C   UNL     1       1.211   0.026   0.673  0.00  0.00    -0.025 C 
ATOM     13  C   UNL     1       0.004   0.152   1.249  0.00  0.00    -0.007 C 
ATOM     14  C   UNL     1      -0.840  -1.036   1.613  0.00  0.00    +0.112 C 
ATOM     15  C   UNL     1      -0.406  -2.289   0.850  0.00  0.00    +0.101 C 
ATOM     16  N   UNL     1       1.053  -2.464   0.976  0.00  0.00    -0.297 NA
ATOM     17  C   UNL     1       1.425  -3.786   0.432  0.00  0.00    +0.105 C 
ATOM     18  H   UNL     1       6.384   1.927  -0.582  0.00  0.00    +0.165 HD
ENDROOT
BRANCH  14  19
ATOM     19  C   UNL     1      -2.294  -0.739   1.358  0.00  0.00    +0.221 C 
ATOM     20  O   UNL     1      -3.135  -0.943   2.275  0.00  0.00    -0.275 OA
ATOM     21  N   UNL     1      -2.721  -0.249   0.076  0.00  0.00    -0.310 N 
ATOM     22  H   UNL     1      -2.019  -0.186  -0.697  0.00  0.00    +0.149 HD
BRANCH  21  23
ATOM     23  CA  UNL     1      -4.104   0.140  -0.212  0.00  0.00    +0.098 C 
BRANCH  23  24
ATOM     24  C   UNL     1      -4.140   1.563  -0.797  0.00  0.00    +0.021 C 
ATOM     25  C   UNL     1      -3.611   2.600   0.194  0.00  0.00    +0.006 C 
ENDBRANCH  23  24
BRANCH  23  26
ATOM     26  C   UNL     1      -4.724  -0.863  -1.196  0.00  0.00    +0.178 C 
BRANCH  26  27
ATOM     27  O   UNL     1      -4.702  -2.158  -0.659  0.00  0.00    -0.393 OA
ATOM     28  H   UNL     1      -5.412  -2.190   0.034  0.00  0.00    +0.209 HD
ENDBRANCH  26  27
ENDBRANCH  23  26
ENDBRANCH  21  23
ENDBRANCH  14  19
TORSDOF 5
