REMARK  Name = 
REMARK  8 active torsions:
REMARK  status: ('A' for Active; 'I' for Inactive)
REMARK    1  A    between atoms: C_4  and  O_5
REMARK    2  A    between atoms: C_4  and  C_6
REMARK    3  A    between atoms: C_6  and  C_8
REMARK    4  A    between atoms: C_8  and  O_9
REMARK    5  A    between atoms: C_10  and  C_11
REMARK    6  A    between atoms: C_13  and  O_14
REMARK    7  A    between atoms: C_18  and  C_19
REMARK    8  A    between atoms: C_26  and  C_27
REMARK                            x       y       z     vdW  Elec       q    Type
REMARK                         _______ _______ _______ _____ _____    ______ ____
ROOT
ATOM      1  C   UNL     1       0.928   0.879   0.472  0.00  0.00    +0.002 C 
ATOM      2  C   UNL     1       1.606   2.237   0.544  0.00  0.00    +0.008 C 
ATOM      3  C   UNL     1       3.087   1.910   0.796  0.00  0.00    +0.043 C 
ATOM      4  C   UNL     1       3.250   0.359   0.682  0.00  0.00    +0.131 C 
ATOM      5  C   UNL     1       1.982  -0.050  -0.156  0.00  0.00    +0.009 C 
ATOM      6  C   UNL     1       2.256   0.259  -1.668  0.00  0.00    +0.015 C 
ATOM      7  C   UNL     1       1.478  -1.514   0.018  0.00  0.00    +0.041 C 
ATOM      8  C   UNL     1       0.031  -1.755  -0.497  0.00  0.00    +0.120 C 
ATOM      9  C   UNL     1      -1.004  -0.681   0.008  0.00  0.00    +0.035 C 
ATOM     10  C   UNL     1      -0.482   0.787  -0.166  0.00  0.00    -0.000 C 
ATOM     11  C   UNL     1      -1.436   1.792   0.521  0.00  0.00    +0.012 C 
ATOM     12  C   UNL     1      -2.877   1.657   0.010  0.00  0.00    +0.013 C 
ATOM     13  C   UNL     1      -3.764   2.747   0.637  0.00  0.00    +0.012 C 
ATOM     14  C   UNL     1      -3.339   0.217   0.228  0.00  0.00    -0.053 C 
ATOM     15  C   UNL     1      -4.365  -0.087   1.050  0.00  0.00    +0.051 C 
ATOM     16  C   UNL     1      -4.737  -1.475   1.323  0.00  0.00    +0.179 C 
ATOM     17  O   UNL     1      -5.704  -1.733   2.086  0.00  0.00    -0.288 OA
ATOM     18  C   UNL     1      -3.978  -2.559   0.713  0.00  0.00    +0.047 C 
ATOM     19  C   UNL     1      -2.954  -2.295  -0.096  0.00  0.00    -0.012 C 
ATOM     20  C   UNL     1      -2.500  -0.880  -0.460  0.00  0.00    +0.013 C 
ATOM     21  C   UNL     1      -2.699  -0.741  -1.990  0.00  0.00    +0.020 C 
ENDROOT
BRANCH   4  22
ATOM     22  O   UNL     1       3.176  -0.149   2.000  0.00  0.00    -0.380 OA
ATOM     23  H   UNL     1       3.441  -1.103   2.000  0.00  0.00    +0.211 HD
ENDBRANCH   4  22
BRANCH   4  24
ATOM     24  C   UNL     1       4.606  -0.028   0.057  0.00  0.00    +0.190 C 
ATOM     25  O   UNL     1       5.435   0.836  -0.188  0.00  0.00    -0.292 OA
BRANCH  24  26
ATOM     26  C   UNL     1       5.003  -1.460  -0.200  0.00  0.00    +0.233 C 
BRANCH  26  27
ATOM     27  O   UNL     1       5.156  -1.683  -1.575  0.00  0.00    -0.387 OA
ATOM     28  H   UNL     1       6.029  -1.282  -1.833  0.00  0.00    +0.210 HD
ENDBRANCH  26  27
ENDBRANCH  24  26
ENDBRANCH   4  24
BRANCH   8  29
ATOM     29  O   UNL     1       0.024  -1.954  -1.887  0.00  0.00    -0.391 OA
ATOM     30  H   UNL     1      -0.053  -1.077  -2.330  0.00  0.00    +0.210 HD
ENDBRANCH   8  29
TORSDOF 5
