REMARK  Name = 
REMARK  8 active torsions:
REMARK  status: ('A' for Active; 'I' for Inactive)
REMARK    1  A    between atoms: C_1  and  C_2
REMARK    2  A    between atoms: C_2  and  N_3
REMARK    3  A    between atoms: C_2  and  C_4
REMARK    4  A    between atoms: C_2  and  C_13
REMARK    5  A    between atoms: C_4  and  C_5
REMARK    6  A    between atoms: C_7  and  O_8
REMARK    7  A    between atoms: C_9  and  O_10
REMARK    8  A    between atoms: C_13  and  O_14
REMARK                            x       y       z     vdW  Elec       q    Type
REMARK                         _______ _______ _______ _____ _____    ______ ____
ROOT
ATOM      1  C   UNL     1      -0.737   0.908  -0.588  0.00  0.00    +0.068 C 
ENDROOT
BRANCH   1   2
ATOM      2  C   UNL     1       0.644   0.478  -0.148  0.00  0.00    -0.041 A 
ATOM      3  C   UNL     1       1.328  -0.533  -0.840  0.00  0.00    +0.053 A 
ATOM      4  C   UNL     1       2.602  -0.949  -0.431  0.00  0.00    +0.158 A 
ATOM      5  C   UNL     1       3.205  -0.341   0.695  0.00  0.00    +0.158 A 
ATOM      6  C   UNL     1       2.519   0.668   1.381  0.00  0.00    +0.049 A 
ATOM      7  C   UNL     1       1.251   1.077   0.966  0.00  0.00    +0.007 A 
BRANCH   4   8
ATOM      8  O   UNL     1       3.224  -1.960  -1.166  0.00  0.00    -0.503 OA
ATOM      9  H   UNL     1       4.139  -2.330  -0.955  0.00  0.00    +0.292 HD
ENDBRANCH   4   8
BRANCH   5  10
ATOM     10  O   UNL     1       4.470  -0.704   1.162  0.00  0.00    -0.503 OA
ATOM     11  H   UNL     1       5.044  -1.419   0.740  0.00  0.00    +0.292 HD
ENDBRANCH   5  10
ENDBRANCH   1   2
BRANCH   1  13
ATOM     12  C   UNL     1      -1.898   0.153   1.548  0.00  0.00    +0.040 C 
ATOM     13  C   UNL     1      -1.876   0.039   0.010  0.00  0.00    +0.116 C 
BRANCH  13  14
ATOM     14  N   UNL     1      -1.670  -1.372  -0.352  0.00  0.00    -0.316 NA
ATOM     15  H   UNL     1      -1.649  -1.471  -1.394  0.00  0.00    +0.119 HD
ATOM     16  H   UNL     1      -2.472  -1.946  -0.002  0.00  0.00    +0.119 HD
ENDBRANCH  13  14
BRANCH  13  17
ATOM     17  C   UNL     1      -3.198   0.547  -0.537  0.00  0.00    +0.325 C 
ATOM     18  O   UNL     1      -3.818  -0.096  -1.428  0.00  0.00    -0.249 OA
BRANCH  17  19
ATOM     19  O   UNL     1      -3.713   1.761  -0.089  0.00  0.00    -0.479 OA
ATOM     20  H   UNL     1      -4.585   2.123  -0.456  0.00  0.00    +0.295 HD
ENDBRANCH  17  19
ENDBRANCH  13  17
ENDBRANCH   1  13
TORSDOF 7
