REMARK  Name = 
REMARK  8 active torsions:
REMARK  status: ('A' for Active; 'I' for Inactive)
REMARK    1  A    between atoms: C_5  and  O_15
REMARK    2  A    between atoms: N_12  and  C_13
REMARK    3  A    between atoms: N_12  and  C_14
REMARK    4  A    between atoms: O_15  and  C_16
REMARK    5  A    between atoms: C_16  and  C_18
REMARK    6  A    between atoms: C_18  and  C_19
REMARK    7  A    between atoms: C_18  and  C_21
REMARK    8  A    between atoms: C_19  and  O_20
REMARK                            x       y       z     vdW  Elec       q    Type
REMARK                         _______ _______ _______ _____ _____    ______ ____
ROOT
ATOM      1 BR   UNL     1       0.650   0.267   0.095  0.00  0.00    +0.000 Br
ENDROOT
TORSDOF 0
REMARK  Name = 
REMARK  8 active torsions:
REMARK  status: ('A' for Active; 'I' for Inactive)
REMARK    1  A    between atoms: C_5  and  O_15
REMARK    2  A    between atoms: N_12  and  C_13
REMARK    3  A    between atoms: N_12  and  C_14
REMARK    4  A    between atoms: O_15  and  C_16
REMARK    5  A    between atoms: C_16  and  C_18
REMARK    6  A    between atoms: C_18  and  C_19
REMARK    7  A    between atoms: C_18  and  C_21
REMARK    8  A    between atoms: C_19  and  O_20
REMARK                            x       y       z     vdW  Elec       q    Type
REMARK                         _______ _______ _______ _____ _____    ______ ____
ROOT
ATOM      1  O   UNL     1       1.340  -4.625  -0.074  0.00  0.00    -0.461 OA
ENDROOT
BRANCH   1   4
ATOM      2  C   UNL     1       0.515  -7.920  -1.090  0.00  0.00    -0.030 C 
ATOM      3  C   UNL     1       1.187  -6.566  -1.454  0.00  0.00    +0.032 C 
ATOM      4  C   UNL     1       0.433  -5.302  -1.006  0.00  0.00    +0.174 C 
ATOM      5  C   UNL     1      -0.992  -5.475  -0.485  0.00  0.00    +0.032 C 
ATOM      6  C   UNL     1      -1.434  -6.941  -0.236  0.00  0.00    -0.030 C 
ATOM      7  C   UNL     1      -1.829  -7.516  -1.593  0.00  0.00    +0.133 C 
ATOM      8  O   UNL     1      -1.698  -8.906  -1.796  0.00  0.00    -0.372 OA
ATOM      9  C   UNL     1      -0.526  -8.171  -2.158  0.00  0.00    +0.133 C 
ATOM     10  N   UNL     1      -0.276  -7.851   0.222  0.00  0.00    +0.384 N 
ATOM     11  C   UNL     1      -0.778  -9.212   0.718  0.00  0.00    -0.091 C 
ATOM     12  C   UNL     1       0.486  -7.412   1.387  0.00  0.00    -0.091 C 
ENDBRANCH   1   4
BRANCH   1  13
ATOM     13  C   UNL     1       1.262  -4.516   1.276  0.00  0.00    +0.317 C 
ATOM     14  O   UNL     1       0.317  -4.947   1.982  0.00  0.00    -0.250 OA
BRANCH  13  15
ATOM     15  C   UNL     1       2.523  -4.038   1.903  0.00  0.00    +0.153 C 
BRANCH  15  16
ATOM     16  C   UNL     1       3.649  -5.035   2.233  0.00  0.00    -0.032 A 
ATOM     17  C   UNL     1       3.597  -6.434   2.176  0.00  0.00    +0.004 A 
ATOM     18  C   UNL     1       4.610  -7.253   2.695  0.00  0.00    +0.000 A 
ATOM     19  C   UNL     1       5.770  -6.678   3.184  0.00  0.00    +0.000 A 
ATOM     20  C   UNL     1       5.873  -5.296   3.225  0.00  0.00    +0.000 A 
ATOM     21  C   UNL     1       4.811  -4.498   2.804  0.00  0.00    +0.004 A 
ENDBRANCH  15  16
BRANCH  15  22
ATOM     22  C   UNL     1       2.966  -2.741   1.208  0.00  0.00    +0.175 C 
BRANCH  22  23
ATOM     23  O   UNL     1       2.739  -2.642  -0.189  0.00  0.00    -0.394 OA
ATOM     24  H   UNL     1       2.579  -3.512  -0.579  0.00  0.00    +0.209 HD
ENDBRANCH  22  23
ENDBRANCH  15  22
ENDBRANCH  13  15
ENDBRANCH   1  13
TORSDOF 6
