REMARK  Name = 
REMARK  4 active torsions:
REMARK  status: ('A' for Active; 'I' for Inactive)
REMARK    1  A    between atoms: C_4  and  C_5
REMARK    2  A    between atoms: C_4  and  O_6
REMARK    3  A    between atoms: C_7  and  C_8
REMARK    4  A    between atoms: C_21  and  C_22
REMARK                            x       y       z     vdW  Elec       q    Type
REMARK                         _______ _______ _______ _____ _____    ______ ____
ROOT
ATOM      1  C   UNL     1      -1.524   0.636   0.308  0.00  0.00    +0.001 C 
ATOM      2  C   UNL     1      -2.388   1.614   1.092  0.00  0.00    +0.007 C 
ATOM      3  C   UNL     1      -3.735   0.890   1.267  0.00  0.00    +0.035 C 
ATOM      4  C   UNL     1      -3.543  -0.583   0.792  0.00  0.00    +0.069 C 
ATOM      5  C   UNL     1      -4.209  -0.791  -0.592  0.00  0.00    +0.042 C 
ATOM      6  C   UNL     1      -1.985  -0.753   0.776  0.00  0.00    -0.000 C 
ATOM      7  C   UNL     1      -1.505  -1.097   2.229  0.00  0.00    +0.014 C 
ATOM      8  C   UNL     1      -1.403  -1.797  -0.212  0.00  0.00    +0.010 C 
ATOM      9  C   UNL     1       0.140  -1.710  -0.283  0.00  0.00    +0.005 C 
ATOM     10  C   UNL     1       0.662  -0.268  -0.587  0.00  0.00    +0.002 C 
ATOM     11  C   UNL     1       0.012   0.809   0.347  0.00  0.00    -0.003 C 
ATOM     12  C   UNL     1       0.414   2.216  -0.130  0.00  0.00    +0.008 C 
ATOM     13  C   UNL     1       1.929   2.392  -0.088  0.00  0.00    +0.032 C 
ATOM     14  C   UNL     1       2.626   1.311  -0.880  0.00  0.00    -0.060 C 
ATOM     15  C   UNL     1       3.698   1.650  -1.620  0.00  0.00    +0.046 C 
ATOM     16  C   UNL     1       4.515   0.648  -2.316  0.00  0.00    +0.156 C 
ATOM     17  O   UNL     1       5.490   1.020  -3.022  0.00  0.00    -0.293 OA
ATOM     18  C   UNL     1       4.242  -0.810  -2.140  0.00  0.00    +0.080 C 
ATOM     19  C   UNL     1       2.763  -1.045  -1.819  0.00  0.00    +0.019 C 
ATOM     20  C   UNL     1       2.236  -0.157  -0.644  0.00  0.00    -0.007 C 
ATOM     21  C   UNL     1       2.893  -0.622   0.681  0.00  0.00    +0.016 C 
ENDROOT
BRANCH   4  22
ATOM     22  O   UNL     1      -4.135  -1.481   1.704  0.00  0.00    -0.388 OA
ATOM     23  H   UNL     1      -5.093  -1.234   1.795  0.00  0.00    +0.210 HD
ENDBRANCH   4  22
TORSDOF 1
