REMARK  Name = 
REMARK  1 active torsions:
REMARK  status: ('A' for Active; 'I' for Inactive)
REMARK    1  A    between atoms: C_1  and  N_2
REMARK                            x       y       z     vdW  Elec       q    Type
REMARK                         _______ _______ _______ _____ _____    ______ ____
ROOT
ATOM      1  C   UNL     1      -1.895  -0.013   0.033  0.00  0.00    +0.151 C 
ATOM      2  N   UNL     1      -0.436  -0.038   0.033  0.00  0.00    -0.330 N 
ATOM      3  C   UNL     1       0.348  -1.134   0.017  0.00  0.00    +0.105 A 
ATOM      4  C   UNL     1       1.667  -0.724  -0.021  0.00  0.00    +0.102 A 
ATOM      5  N   UNL     1       1.701   0.622  -0.036  0.00  0.00    -0.340 N 
ATOM      6  C   UNL     1       0.413   1.011  -0.007  0.00  0.00    +0.158 A 
ATOM      7  S   UNL     1      -0.053   2.583  -0.032  0.00  0.00    -0.013 S 
ATOM      8  H   UNL     1       2.550   1.229  -0.072  0.00  0.00    +0.167 HD
ENDROOT
TORSDOF 0
