REMARK  Name = 
REMARK  5 active torsions:
REMARK  status: ('A' for Active; 'I' for Inactive)
REMARK    1  A    between atoms: C_1  and  C_2
REMARK    2  A    between atoms: C_2  and  C_3
REMARK    3  A    between atoms: C_3  and  C_4
REMARK    4  A    between atoms: C_4  and  C_5
REMARK    5  A    between atoms: C_10  and  C_11
REMARK                            x       y       z     vdW  Elec       q    Type
REMARK                         _______ _______ _______ _____ _____    ______ ____
ROOT
ATOM      1  C   UNL     1      -0.544  -0.340  -0.164  0.00  0.00    +0.105 C 
ATOM      2  C   UNL     1      -0.163  -1.713   0.387  0.00  0.00    +0.226 C 
ATOM      3  O   UNL     1      -1.031  -2.609   0.560  0.00  0.00    -0.275 OA
ATOM      4  N   UNL     1       1.191  -1.997   0.748  0.00  0.00    -0.314 N 
ATOM      5  C   UNL     1       2.188  -0.940   0.783  0.00  0.00    +0.115 C 
ATOM      6  C   UNL     1       2.113  -0.095  -0.496  0.00  0.00    +0.070 C 
ATOM      7  C   UNL     1       2.939   1.187  -0.323  0.00  0.00    +0.017 C 
ATOM      8  C   UNL     1       0.682   0.234  -0.897  0.00  0.00    +0.152 C 
ATOM      9  O   UNL     1       0.519   0.996  -1.841  0.00  0.00    -0.296 OA
ATOM     10  H   UNL     1       1.467  -2.974   0.998  0.00  0.00    +0.149 HD
ENDROOT
BRANCH   1  12
ATOM     11  C   UNL     1      -3.125  -0.743  -0.589  0.00  0.00    +0.005 C 
ATOM     12  C   UNL     1      -1.731  -0.488  -1.187  0.00  0.00    +0.020 C 
ENDBRANCH   1  12
BRANCH   1  13
ATOM     13  C   UNL     1      -0.911   0.588   1.033  0.00  0.00    +0.020 C 
ATOM     14  C   UNL     1      -1.234   2.035   0.642  0.00  0.00    +0.005 C 
ENDBRANCH   1  13
TORSDOF 2
