REMARK  Name = 
REMARK  9 active torsions:
REMARK  status: ('A' for Active; 'I' for Inactive)
REMARK    1  A    between atoms: C_1  and  C_2
REMARK    2  A    between atoms: C_2  and  C_3
REMARK    3  A    between atoms: C_2  and  O_8
REMARK    4  A    between atoms: C_3  and  N_4
REMARK    5  A    between atoms: N_4  and  C_5
REMARK    6  A    between atoms: N_4  and  C_6
REMARK    7  A    between atoms: N_4  and  C_7
REMARK    8  A    between atoms: O_8  and  C_9
REMARK    9  A    between atoms: C_9  and  C_10
REMARK                            x       y       z     vdW  Elec       q    Type
REMARK                         _______ _______ _______ _____ _____    ______ ____
ROOT
ATOM      1  C   UNL     1       1.232  -2.118   0.980  0.00  0.00    +0.050 C 
ATOM      2  C   UNL     1       0.640  -0.769   0.557  0.00  0.00    +0.157 C 
ENDROOT
BRANCH   2   3
ATOM      3  C   UNL     1      -0.783  -0.973  -0.030  0.00  0.00    -0.031 C 
BRANCH   3   4
ATOM      4  N   UNL     1      -1.635   0.256  -0.119  0.00  0.00    +0.377 N 
ATOM      5  C   UNL     1      -2.885  -0.108  -0.832  0.00  0.00    -0.093 C 
ATOM      6  C   UNL     1      -2.003   0.753   1.230  0.00  0.00    -0.093 C 
ATOM      7  C   UNL     1      -0.966   1.337  -0.881  0.00  0.00    -0.093 C 
ENDBRANCH   3   4
ENDBRANCH   2   3
BRANCH   2   8
ATOM      8  O   UNL     1       1.485  -0.178  -0.433  0.00  0.00    -0.464 OA
BRANCH   8   9
ATOM      9  C   UNL     1       2.692   0.466  -0.139  0.00  0.00    +0.304 C 
ATOM     10  C   UNL     1       3.521   1.011  -1.251  0.00  0.00    +0.136 C 
ATOM     11  O   UNL     1       3.101   0.564   1.050  0.00  0.00    -0.251 OA
ENDBRANCH   8   9
ENDBRANCH   2   8
TORSDOF 4
