REMARK  Name = 
REMARK  10 active torsions:
REMARK  status: ('A' for Active; 'I' for Inactive)
REMARK    1  A    between atoms: C_1  and  C_2
REMARK    2  A    between atoms: C_2  and  N_3
REMARK    3  A    between atoms: N_3  and  C_4
REMARK    4  A    between atoms: N_3  and  C_5
REMARK    5  A    between atoms: N_3  and  C_7
REMARK    6  A    between atoms: C_5  and  C_6
REMARK    7  A    between atoms: C_7  and  C_8
REMARK    8  A    between atoms: C_8  and  O_9
REMARK    9  A    between atoms: O_9  and  C_10
REMARK   10  A    between atoms: C_10  and  C_12
REMARK                            x       y       z     vdW  Elec       q    Type
REMARK                         _______ _______ _______ _____ _____    ______ ____
ROOT
ATOM      1  C   UNL     1       2.039  -0.252   0.326  0.00  0.00    +0.164 C 
ATOM      2  C   UNL     1       2.963   0.930   0.112  0.00  0.00    +0.013 A 
ATOM      3  C   UNL     1       2.480   2.239   0.280  0.00  0.00    +0.008 A 
ATOM      4  C   UNL     1       3.304   3.336   0.015  0.00  0.00    +0.001 A 
ATOM      5  C   UNL     1       4.615   3.137  -0.426  0.00  0.00    +0.004 A 
ATOM      6  C   UNL     1       5.107   1.840  -0.593  0.00  0.00    +0.046 A 
ATOM      7  C   UNL     1       4.291   0.737  -0.319  0.00  0.00    +0.133 A 
ATOM      8  O   UNL     1       4.813  -0.551  -0.455  0.00  0.00    -0.455 OA
ATOM      9  C   UNL     1       4.101  -1.686  -0.063  0.00  0.00    +0.133 A 
ATOM     10  C   UNL     1       4.732  -2.935  -0.089  0.00  0.00    +0.046 A 
ATOM     11  C   UNL     1       4.048  -4.077   0.337  0.00  0.00    +0.004 A 
ATOM     12  C   UNL     1       2.730  -3.976   0.787  0.00  0.00    +0.001 A 
ATOM     13  C   UNL     1       2.089  -2.734   0.805  0.00  0.00    +0.008 A 
ATOM     14  C   UNL     1       2.766  -1.579   0.376  0.00  0.00    +0.013 A 
ENDROOT
BRANCH   1  15
ATOM     15  C   UNL     1       1.002  -0.296  -0.761  0.00  0.00    +0.319 C 
ATOM     16  O   UNL     1       1.350  -0.229  -1.973  0.00  0.00    -0.250 OA
BRANCH  15  17
ATOM     17  O   UNL     1      -0.342  -0.459  -0.416  0.00  0.00    -0.466 OA
BRANCH  17  18
ATOM     18  C   UNL     1      -1.384  -0.514  -1.385  0.00  0.00    +0.214 C 
BRANCH  18  19
ATOM     19  C   UNL     1      -2.744  -0.775  -0.709  0.00  0.00    -0.034 C 
BRANCH  19  20
ATOM     20  N   UNL     1      -3.418   0.400  -0.057  0.00  0.00    +0.380 N 
ATOM     21  C   UNL     1      -3.894   1.368  -1.084  0.00  0.00    -0.092 C 
BRANCH  20  23
ATOM     22  C   UNL     1      -1.645   2.231   0.481  0.00  0.00    -0.016 C 
ATOM     23  C   UNL     1      -2.523   1.060   0.966  0.00  0.00    -0.079 C 
ENDBRANCH  20  23
BRANCH  20  24
ATOM     24  C   UNL     1      -4.612  -0.105   0.711  0.00  0.00    -0.079 C 
ATOM     25  C   UNL     1      -5.638  -0.943  -0.079  0.00  0.00    -0.016 C 
ENDBRANCH  20  24
ENDBRANCH  19  20
ENDBRANCH  18  19
ENDBRANCH  17  18
ENDBRANCH  15  17
ENDBRANCH   1  15
TORSDOF 7
