REMARK  Name = 
REMARK  4 active torsions:
REMARK  status: ('A' for Active; 'I' for Inactive)
REMARK    1  A    between atoms: C_1  and  N_2
REMARK    2  A    between atoms: C_3  and  C_4
REMARK    3  A    between atoms: C_11  and  S_17
REMARK    4  A    between atoms: S_17  and  N_18
REMARK                            x       y       z     vdW  Elec       q    Type
REMARK                         _______ _______ _______ _____ _____    ______ ____
ROOT
ATOM      1  C   UNL     1      -2.776   1.557  -0.962  0.00  0.00    +0.134 C 
ATOM      2  N   UNL     1      -2.516   1.048   0.395  0.00  0.00    -0.158 NA
ATOM      3  C   UNL     1      -2.577  -0.430   0.491  0.00  0.00    +0.177 C 
ATOM      4  N   UNL     1      -1.601  -1.085  -0.397  0.00  0.00    -0.325 N 
ATOM      5  C   UNL     1      -0.206  -0.729  -0.405  0.00  0.00    +0.056 A 
ATOM      6  C   UNL     1       0.725  -1.575  -1.024  0.00  0.00    +0.047 A 
ATOM      7  C   UNL     1       2.086  -1.250  -1.040  0.00  0.00    +0.069 A 
ATOM      8 CL   UNL     1       3.198  -2.365  -1.828  0.00  0.00    -0.081 Cl
ATOM      9  C   UNL     1       2.532  -0.057  -0.435  0.00  0.00    +0.125 A 
ATOM     10  C   UNL     1       1.599   0.794   0.175  0.00  0.00    +0.060 A 
ATOM     11  C   UNL     1       0.239   0.464   0.185  0.00  0.00    +0.128 A 
ATOM     12  S   UNL     1      -0.928   1.550   0.914  0.00  0.00    +0.064 S 
ATOM     13  O   UNL     1      -0.652   2.967   0.493  0.00  0.00    -0.153 OA
ATOM     14  O   UNL     1      -0.837   1.448   2.411  0.00  0.00    -0.153 OA
ATOM     15  H   UNL     1      -1.896  -1.920  -0.952  0.00  0.00    +0.148 HD
ENDROOT
BRANCH   9  16
ATOM     16  S   UNL     1       4.245   0.381  -0.433  0.00  0.00    +0.057 S 
ATOM     17  O   UNL     1       4.734   0.496  -1.849  0.00  0.00    -0.153 OA
ATOM     18  O   UNL     1       4.446   1.702   0.258  0.00  0.00    -0.153 OA
BRANCH  16  19
ATOM     19  N   UNL     1       5.150  -0.833   0.401  0.00  0.00    -0.203 NA
ATOM     20  H   UNL     1       6.141  -0.504   0.439  0.00  0.00    +0.144 HD
ATOM     21  H   UNL     1       4.800  -0.853   1.385  0.00  0.00    +0.144 HD
ENDBRANCH  16  19
ENDBRANCH   9  16
BRANCH   3  22
ATOM     22  C   UNL     1      -4.010  -0.978   0.300  0.00  0.00    +0.148 C 
ATOM     23 CL   UNL     1      -4.496  -1.202  -1.409  0.00  0.00    -0.122 Cl
ENDBRANCH   3  22
TORSDOF 3
