REMARK  Name = 
REMARK  5 active torsions:
REMARK  status: ('A' for Active; 'I' for Inactive)
REMARK    1  A    between atoms: C_4  and  O_5
REMARK    2  A    between atoms: N_13  and  C_14
REMARK    3  A    between atoms: N_13  and  C_15
REMARK    4  A    between atoms: C_15  and  C_16
REMARK    5  A    between atoms: C_21  and  O_22
REMARK                            x       y       z     vdW  Elec       q    Type
REMARK                         _______ _______ _______ _____ _____    ______ ____
ROOT
ATOM      1  C   UNL     1      -2.825  -0.313   1.272  0.00  0.00    +0.252 C 
ATOM      2  O   UNL     1      -3.376   0.988   1.021  0.00  0.00    -0.476 OA
ATOM      3  C   UNL     1      -2.625   1.636   0.062  0.00  0.00    +0.167 A 
ATOM      4  C   UNL     1      -2.947   2.800  -0.634  0.00  0.00    +0.159 A 
ATOM      5  C   UNL     1      -2.112   3.181  -1.706  0.00  0.00    +0.049 A 
ATOM      6  C   UNL     1      -1.024   2.363  -2.084  0.00  0.00    +0.007 A 
ATOM      7  C   UNL     1      -0.724   1.202  -1.344  0.00  0.00    -0.041 A 
ATOM      8  C   UNL     1      -1.507   0.922  -0.231  0.00  0.00    +0.014 A 
ATOM      9  C   UNL     1      -1.369  -0.256   0.675  0.00  0.00    +0.069 C 
ATOM     10  C   UNL     1      -0.299   0.113   1.751  0.00  0.00    +0.000 C 
ATOM     11  C   UNL     1       1.022  -0.664   1.613  0.00  0.00    -0.074 C 
ATOM     12  N   UNL     1       1.558  -0.771   0.207  0.00  0.00    +0.382 N 
ATOM     13  C   UNL     1       2.480  -1.942   0.190  0.00  0.00    -0.091 C 
ATOM     14  C   UNL     1       0.451  -1.043  -0.835  0.00  0.00    -0.028 C 
ATOM     15  C   UNL     1       0.185   0.123  -1.875  0.00  0.00    +0.023 C 
ATOM     16  C   UNL     1      -0.914  -1.485  -0.166  0.00  0.00    +0.069 C 
ATOM     17  C   UNL     1      -2.018  -1.859  -1.190  0.00  0.00    +0.042 C 
ATOM     18  C   UNL     1      -3.317  -2.273  -0.490  0.00  0.00    +0.081 C 
ATOM     19  C   UNL     1      -3.734  -1.349   0.634  0.00  0.00    +0.175 C 
ATOM     20  O   UNL     1      -4.869  -1.460   1.071  0.00  0.00    -0.293 OA
ENDROOT
BRANCH   4  21
ATOM     21  O   UNL     1      -4.077   3.538  -0.294  0.00  0.00    -0.503 OA
ATOM     22  H   UNL     1      -4.328   4.380  -0.799  0.00  0.00    +0.292 HD
ENDBRANCH   4  21
BRANCH  16  23
ATOM     23  O   UNL     1      -0.680  -2.634   0.622  0.00  0.00    -0.389 OA
ATOM     24  H   UNL     1      -1.343  -2.662   1.360  0.00  0.00    +0.210 HD
ENDBRANCH  16  23
BRANCH  12  25
ATOM     25  C   UNL     1       2.380   0.449  -0.121  0.00  0.00    -0.071 C 
BRANCH  25  26
ATOM     26  C   UNL     1       3.587   0.742   0.817  0.00  0.00    -0.027 C 
ATOM     27  C   UNL     1       4.605   1.698   0.202  0.00  0.00    +0.002 C 
ATOM     28  C   UNL     1       4.954   0.232   0.376  0.00  0.00    +0.002 C 
ENDBRANCH  25  26
ENDBRANCH  12  25
TORSDOF 4
