REMARK  Name = 
REMARK  11 active torsions:
REMARK  status: ('A' for Active; 'I' for Inactive)
REMARK    1  A    between atoms: C_1  and  C_2
REMARK    2  A    between atoms: C_2  and  C_3
REMARK    3  A    between atoms: C_3  and  C_5
REMARK    4  A    between atoms: C_5  and  C_6
REMARK    5  A    between atoms: C_5  and  C_12
REMARK    6  A    between atoms: C_5  and  C_18
REMARK    7  A    between atoms: C_6  and  C_7
REMARK    8  A    between atoms: C_7  and  C_8
REMARK    9  A    between atoms: C_7  and  N_9
REMARK   10  A    between atoms: N_9  and  C_10
REMARK   11  A    between atoms: N_9  and  C_11
REMARK                            x       y       z     vdW  Elec       q    Type
REMARK                         _______ _______ _______ _____ _____    ______ ____
ROOT
ATOM      1  C   UNL     1      -0.786   0.159   0.180  0.00  0.00    +0.080 C 
ENDROOT
BRANCH   1   2
ATOM      2  C   UNL     1      -1.017   1.411  -0.698  0.00  0.00    -0.030 A 
ATOM      3  C   UNL     1      -1.249   2.664  -0.087  0.00  0.00    +0.005 A 
ATOM      4  C   UNL     1      -1.435   3.816  -0.856  0.00  0.00    +0.000 A 
ATOM      5  C   UNL     1      -1.375   3.746  -2.248  0.00  0.00    +0.000 A 
ATOM      6  C   UNL     1      -1.113   2.528  -2.873  0.00  0.00    +0.000 A 
ATOM      7  C   UNL     1      -0.920   1.372  -2.111  0.00  0.00    +0.005 A 
ENDBRANCH   1   2
BRANCH   1   8
ATOM      8  C   UNL     1      -0.990  -1.145  -0.634  0.00  0.00    -0.030 A 
ATOM      9  C   UNL     1      -2.211  -1.342  -1.325  0.00  0.00    +0.005 A 
ATOM     10  C   UNL     1      -2.455  -2.513  -2.046  0.00  0.00    +0.000 A 
ATOM     11  C   UNL     1      -1.496  -3.523  -2.083  0.00  0.00    +0.000 A 
ATOM     12  C   UNL     1      -0.296  -3.366  -1.394  0.00  0.00    +0.000 A 
ATOM     13  C   UNL     1      -0.046  -2.196  -0.671  0.00  0.00    +0.005 A 
ENDBRANCH   1   8
BRANCH   1  14
ATOM     14  C   UNL     1      -1.870   0.118   1.283  0.00  0.00    +0.148 C 
ATOM     15  O   UNL     1      -2.993   0.533   1.028  0.00  0.00    -0.296 OA
BRANCH  14  17
ATOM     16  C   UNL     1      -1.657  -2.047   2.550  0.00  0.00    +0.012 C 
ATOM     17  C   UNL     1      -1.666  -0.524   2.640  0.00  0.00    +0.072 C 
ENDBRANCH  14  17
ENDBRANCH   1  14
BRANCH   1  18
ATOM     18  C   UNL     1       0.632   0.293   0.861  0.00  0.00    +0.042 C 
BRANCH  18  19
ATOM     19  C   UNL     1       1.885   0.519  -0.056  0.00  0.00    +0.055 C 
ATOM     20  C   UNL     1       2.046   1.987  -0.504  0.00  0.00    +0.024 C 
BRANCH  19  21
ATOM     21  N   UNL     1       3.160   0.100   0.594  0.00  0.00    -0.306 NA
ATOM     22  C   UNL     1       3.395  -1.351   0.558  0.00  0.00    +0.104 C 
ATOM     23  C   UNL     1       3.355   0.629   1.958  0.00  0.00    +0.104 C 
ENDBRANCH  19  21
ENDBRANCH  18  19
ENDBRANCH   1  18
TORSDOF 7
