REMARK  Name = 
REMARK  5 active torsions:
REMARK  status: ('A' for Active; 'I' for Inactive)
REMARK    1  A    between atoms: C_1  and  N_2
REMARK    2  A    between atoms: N_2  and  C_3
REMARK    3  A    between atoms: C_3  and  C_4
REMARK    4  A    between atoms: C_3  and  C_5
REMARK    5  A    between atoms: C_5  and  C_6
REMARK                            x       y       z     vdW  Elec       q    Type
REMARK                         _______ _______ _______ _____ _____    ______ ____
ROOT
ATOM      1  C   UNL     1      -0.053  -1.270  -0.564  0.00  0.00    +0.053 C 
ENDROOT
BRANCH   1   2
ATOM      2  C   UNL     1       1.170  -0.461  -0.212  0.00  0.00    -0.046 A 
ATOM      3  C   UNL     1       1.807  -0.645   1.027  0.00  0.00    +0.004 A 
ATOM      4  C   UNL     1       2.921   0.128   1.367  0.00  0.00    +0.000 A 
ATOM      5  C   UNL     1       3.402   1.093   0.479  0.00  0.00    +0.000 A 
ATOM      6  C   UNL     1       2.768   1.290  -0.751  0.00  0.00    +0.000 A 
ATOM      7  C   UNL     1       1.653   0.519  -1.095  0.00  0.00    +0.004 A 
ENDBRANCH   1   2
BRANCH   1   8
ATOM      8  C   UNL     1      -1.325  -0.654   0.044  0.00  0.00    +0.055 C 
ATOM      9  C   UNL     1      -2.531  -1.573  -0.221  0.00  0.00    +0.024 C 
BRANCH   8  11
ATOM     10  C   UNL     1      -2.327   1.548   0.365  0.00  0.00    +0.101 C 
ATOM     11  N   UNL     1      -1.535   0.693  -0.522  0.00  0.00    -0.316 NA
ATOM     12  H   UNL     1      -2.020   0.627  -1.448  0.00  0.00    +0.122 HD
ENDBRANCH   8  11
ENDBRANCH   1   8
TORSDOF 3
