REMARK  Name = 
REMARK  3 active torsions:
REMARK  status: ('A' for Active; 'I' for Inactive)
REMARK    1  A    between atoms: C_1  and  N_2
REMARK    2  A    between atoms: C_6  and  C_7
REMARK    3  A    between atoms: C_6  and  C_10
REMARK                            x       y       z     vdW  Elec       q    Type
REMARK                         _______ _______ _______ _____ _____    ______ ____
ROOT
ATOM      1  C   UNL     1      -3.135   0.955  -1.649  0.00  0.00    +0.141 C 
ATOM      2  N   UNL     1      -2.348   0.289  -0.618  0.00  0.00    -0.245 N 
ATOM      3  C   UNL     1      -2.272   0.688   0.739  0.00  0.00    +0.223 C 
ATOM      4  O   UNL     1      -3.092   1.485   1.266  0.00  0.00    -0.275 OA
ATOM      5  C   UNL     1      -1.119   0.086   1.471  0.00  0.00    +0.117 C 
ATOM      6  C   UNL     1      -0.367  -0.740   0.380  0.00  0.00    +0.078 C 
ATOM      7  C   UNL     1      -0.411  -2.245   0.723  0.00  0.00    +0.026 C 
ATOM      8  C   UNL     1      -1.206  -0.516  -0.852  0.00  0.00    +0.232 C 
ATOM      9  O   UNL     1      -0.920  -0.978  -1.990  0.00  0.00    -0.274 OA
ENDROOT
BRANCH   6  10
ATOM     10  C   UNL     1       1.052  -0.188   0.164  0.00  0.00    -0.032 A 
ATOM     11  C   UNL     1       2.211  -0.901   0.550  0.00  0.00    +0.004 A 
ATOM     12  C   UNL     1       3.483  -0.350   0.365  0.00  0.00    +0.000 A 
ATOM     13  C   UNL     1       3.625   0.921  -0.191  0.00  0.00    +0.000 A 
ATOM     14  C   UNL     1       2.494   1.650  -0.558  0.00  0.00    +0.000 A 
ATOM     15  C   UNL     1       1.220   1.106  -0.378  0.00  0.00    +0.004 A 
ENDBRANCH   6  10
TORSDOF 1
