REMARK  Name = 
REMARK  9 active torsions:
REMARK  status: ('A' for Active; 'I' for Inactive)
REMARK    1  A    between atoms: C_1  and  O_2
REMARK    2  A    between atoms: O_2  and  C_3
REMARK    3  A    between atoms: N_14  and  C_15
REMARK    4  A    between atoms: C_15  and  C_16
REMARK    5  A    between atoms: C_16  and  C_17
REMARK    6  A    between atoms: C_16  and  C_18
REMARK    7  A    between atoms: C_18  and  N_19
REMARK    8  A    between atoms: N_19  and  C_20
REMARK    9  A    between atoms: N_19  and  C_21
REMARK                            x       y       z     vdW  Elec       q    Type
REMARK                         _______ _______ _______ _____ _____    ______ ____
ROOT
ATOM      1  C   UNL     1      -2.647  -1.665  -0.899  0.00  0.00    +0.122 A 
ATOM      2  C   UNL     1      -1.490  -0.876  -0.921  0.00  0.00    +0.070 A 
ATOM      3  C   UNL     1      -1.399   0.286  -0.135  0.00  0.00    +0.051 A 
ATOM      4  C   UNL     1      -2.482   0.645   0.687  0.00  0.00    +0.034 A 
ATOM      5  S   UNL     1      -2.322   2.050   1.794  0.00  0.00    -0.086 S 
ATOM      6  C   UNL     1      -1.613   3.105   0.527  0.00  0.00    +0.034 A 
ATOM      7  C   UNL     1      -0.579   2.606  -0.288  0.00  0.00    +0.048 A 
ATOM      8  C   UNL     1       0.021   3.459  -1.232  0.00  0.00    +0.024 A 
ATOM      9  C   UNL     1      -0.400   4.787  -1.349  0.00  0.00    +0.002 A 
ATOM     10  C   UNL     1      -1.437   5.269  -0.545  0.00  0.00    +0.001 A 
ATOM     11  C   UNL     1      -2.048   4.428   0.389  0.00  0.00    +0.017 A 
ATOM     12  N   UNL     1      -0.280   1.193  -0.262  0.00  0.00    -0.298 N 
ATOM     13  C   UNL     1      -3.648  -0.125   0.695  0.00  0.00    +0.020 A 
ATOM     14  C   UNL     1      -3.732  -1.278  -0.089  0.00  0.00    +0.047 A 
ENDROOT
BRANCH   1  16
ATOM     15  C   UNL     1      -3.788  -3.709  -1.778  0.00  0.00    +0.277 C 
ATOM     16  O   UNL     1      -2.682  -2.817  -1.700  0.00  0.00    -0.495 OA
ENDBRANCH   1  16
BRANCH  12  17
ATOM     17  C   UNL     1       1.097   0.705  -0.458  0.00  0.00    +0.115 C 
BRANCH  17  18
ATOM     18  C   UNL     1       1.525  -0.269   0.663  0.00  0.00    +0.018 C 
ATOM     19  C   UNL     1       1.531   0.441   2.027  0.00  0.00    +0.010 C 
BRANCH  18  20
ATOM     20  C   UNL     1       2.918  -0.856   0.346  0.00  0.00    +0.088 C 
BRANCH  20  21
ATOM     21  N   UNL     1       3.318  -1.864   1.355  0.00  0.00    -0.308 NA
ATOM     22  C   UNL     1       2.784  -3.196   1.016  0.00  0.00    +0.104 C 
ATOM     23  C   UNL     1       4.784  -1.937   1.454  0.00  0.00    +0.104 C 
ENDBRANCH  20  21
ENDBRANCH  18  20
ENDBRANCH  17  18
ENDBRANCH  12  17
TORSDOF 5
