REMARK  Name = 
REMARK  12 active torsions:
REMARK  status: ('A' for Active; 'I' for Inactive)
REMARK    1  A    between atoms: C_1  and  N_2
REMARK    2  A    between atoms: N_2  and  C_3
REMARK    3  A    between atoms: N_2  and  C_16
REMARK    4  A    between atoms: C_3  and  C_4
REMARK    5  A    between atoms: C_19  and  C_22
REMARK    6  A    between atoms: N_24  and  CA_25
REMARK    7  A    between atoms: CA_25  and  CB_26
REMARK    8  A    between atoms: CA_25  and  C_31
REMARK    9  A    between atoms: CB_26  and  CG_27
REMARK   10  A    between atoms: CG_27  and  CD_28
REMARK   11  A    between atoms: CD_28  and  OE1_29
REMARK   12  A    between atoms: C_31  and  O_32
REMARK                            x       y       z     vdW  Elec       q    Type
REMARK                         _______ _______ _______ _____ _____    ______ ____
ROOT
ATOM      1  C   UNK A   0       1.023   0.064  -2.148  0.00  0.00    +0.030 A 
ATOM      2  C   UNK A   0      -0.118   0.831  -2.466  0.00  0.00    +0.024 A 
ATOM      3  C   UNK A   0      -1.364   0.537  -1.906  0.00  0.00    +0.015 A 
ATOM      4  C   UNK A   0      -1.503  -0.518  -0.994  0.00  0.00    +0.037 A 
ATOM      5  C   UNK A   0      -0.379  -1.308  -0.695  0.00  0.00    +0.015 A 
ATOM      6  C   UNK A   0       0.866  -1.020  -1.258  0.00  0.00    +0.024 A 
ENDROOT
BRANCH   4   7
ATOM      7  C   UNK A   0      -2.815  -0.832  -0.379  0.00  0.00    +0.245 C 
ATOM      8  O   UNK A   0      -3.034  -2.003   0.034  0.00  0.00    -0.270 OA
ATOM      9  N   GLU A   1      -3.829   0.178  -0.232  0.00  0.00    -0.298 N 
ATOM     10  H   GLU A   1      -3.547   1.178  -0.339  0.00  0.00    +0.150 HD
BRANCH   9  11
ATOM     11  CA  GLU A   1      -5.135  -0.108   0.377  0.00  0.00    +0.182 C 
BRANCH  11  12
ATOM     12  C   GLU A   1      -6.216   0.669  -0.330  0.00  0.00    +0.325 C 
ATOM     13  OXT GLU A   1      -7.415   0.264  -0.274  0.00  0.00    -0.249 OA
BRANCH  12  14
ATOM     14  O   GLU A   1      -5.899   1.818  -1.078  0.00  0.00    -0.479 OA
ATOM     15  H   GLU A   1      -6.610   2.317  -1.600  0.00  0.00    +0.295 HD
ENDBRANCH  12  14
ENDBRANCH  11  12
BRANCH  11  16
ATOM     16  CB  GLU A   1      -5.079   0.227   1.887  0.00  0.00    +0.045 C 
BRANCH  16  17
ATOM     17  CG  GLU A   1      -6.031  -0.627   2.748  0.00  0.00    +0.123 C 
BRANCH  17  18
ATOM     18  CD  GLU A   1      -7.432  -0.102   2.755  0.00  0.00    +0.305 C 
ATOM     19  OE2 GLU A   1      -7.691   1.000   3.305  0.00  0.00    -0.251 OA
BRANCH  18  20
ATOM     20  OE1 GLU A   1      -8.455  -0.841   2.171  0.00  0.00    -0.481 OA
ATOM     21  HE1 GLU A   1      -9.410  -0.507   2.180  0.00  0.00    +0.295 HD
ENDBRANCH  18  20
ENDBRANCH  17  18
ENDBRANCH  16  17
ENDBRANCH  11  16
ENDBRANCH   9  11
ENDBRANCH   4   7
BRANCH   1  23
ATOM     22  C   UNK A   0       2.605   1.762  -3.168  0.00  0.00    +0.129 C 
ATOM     23  N   UNK A   0       2.318   0.389  -2.727  0.00  0.00    -0.327 N 
BRANCH  23  24
ATOM     24  C   UNK A   0       3.402  -0.603  -2.827  0.00  0.00    +0.161 C 
BRANCH  24  25
ATOM     25  C   UNK A   0       4.406  -0.392  -1.727  0.00  0.00    +0.077 A 
ATOM     26  C   UNK A   0       5.701   0.075  -2.005  0.00  0.00    +0.138 A 
ATOM     27  N   UNK A   0       6.572   0.292  -0.983  0.00  0.00    -0.232 NA
ATOM     28  C   UNK A   0       6.212   0.062   0.307  0.00  0.00    +0.185 A 
ATOM     29  N   UNK A   0       7.085   0.297   1.320  0.00  0.00    -0.193 NA
ATOM     30  C   UNK A   0       6.726   0.073   2.613  0.00  0.00    +0.216 A 
ATOM     31  N   UNK A   0       7.649   0.343   3.666  0.00  0.00    -0.327 N 
ATOM     32  N   UNK A   0       5.481  -0.393   2.902  0.00  0.00    -0.198 NA
ATOM     33  C   UNK A   0       4.570  -0.642   1.924  0.00  0.00    +0.149 A 
ATOM     34  N   UNK A   0       3.271  -1.123   2.277  0.00  0.00    -0.341 N 
ATOM     35  C   UNK A   0       4.921  -0.412   0.588  0.00  0.00    +0.148 A 
ATOM     36  N   UNK A   0       4.050  -0.622  -0.434  0.00  0.00    -0.242 NA
ATOM     37  H   UNK A   0       7.372   0.189   4.662  0.00  0.00    +0.145 HD
ATOM     38  H   UNK A   0       8.570   0.784   3.461  0.00  0.00    +0.145 HD
ATOM     39  H   UNK A   0       2.566  -1.375   1.547  0.00  0.00    +0.144 HD
ATOM     40  H   UNK A   0       3.018  -1.256   3.279  0.00  0.00    +0.144 HD
ENDBRANCH  24  25
ENDBRANCH  23  24
ENDBRANCH   1  23
TORSDOF 11
