REMARK  Name = 
REMARK  5 active torsions:
REMARK  status: ('A' for Active; 'I' for Inactive)
REMARK    1  A    between atoms: C_1  and  N_2
REMARK    2  A    between atoms: C_4  and  S_11
REMARK    3  A    between atoms: N_7  and  C_8
REMARK    4  A    between atoms: C_8  and  C_9
REMARK    5  A    between atoms: S_11  and  N_12
REMARK                            x       y       z     vdW  Elec       q    Type
REMARK                         _______ _______ _______ _____ _____    ______ ____
ROOT
ATOM      1  C   UNL     1      -0.763  -1.777   1.835  0.00  0.00    +0.175 C 
ATOM      2  N   UNL     1      -0.024  -1.070   0.793  0.00  0.00    -0.244 N 
ATOM      3  N   UNL     1       1.250  -1.351   0.522  0.00  0.00    -0.142 NA
ATOM      4  C   UNL     1       1.756  -0.591  -0.473  0.00  0.00    +0.254 A 
ATOM      5  S   UNL     1       0.614   0.492  -1.072  0.00  0.00    -0.011 S 
ATOM      6  C   UNL     1      -0.543  -0.084   0.020  0.00  0.00    +0.185 A 
ATOM      7  N   UNL     1      -1.774   0.329   0.136  0.00  0.00    -0.155 NA
ENDROOT
BRANCH   7   8
ATOM      8  C   UNL     1      -2.427   1.360  -0.621  0.00  0.00    +0.235 C 
ATOM      9  C   UNL     1      -3.857   1.676  -0.335  0.00  0.00    +0.111 C 
ATOM     10  O   UNL     1      -1.807   2.037  -1.484  0.00  0.00    -0.274 OA
ENDBRANCH   7   8
BRANCH   4  11
ATOM     11  S   UNL     1       3.405  -0.719  -1.052  0.00  0.00    +0.081 S 
ATOM     12  O   UNL     1       3.399  -0.945  -2.537  0.00  0.00    -0.151 OA
ATOM     13  O   UNL     1       4.081  -1.881  -0.381  0.00  0.00    -0.151 OA
BRANCH  11  14
ATOM     14  N   UNL     1       4.269   0.733  -0.684  0.00  0.00    -0.202 NA
ATOM     15  H   UNL     1       4.183   0.887   0.345  0.00  0.00    +0.144 HD
ATOM     16  H   UNL     1       3.761   1.518  -1.150  0.00  0.00    +0.144 HD
ENDBRANCH  11  14
ENDBRANCH   4  11
TORSDOF 3
