REMARK  Name = 
REMARK  9 active torsions:
REMARK  status: ('A' for Active; 'I' for Inactive)
REMARK    1  A    between atoms: C_1  and  O_2
REMARK    2  A    between atoms: O_2  and  C_3
REMARK    3  A    between atoms: C_8  and  O_9
REMARK    4  A    between atoms: O_9  and  C_10
REMARK    5  A    between atoms: C_10  and  C_11
REMARK    6  A    between atoms: C_11  and  O_12
REMARK    7  A    between atoms: C_11  and  C_13
REMARK    8  A    between atoms: C_13  and  O_14
REMARK    9  A    between atoms: O_14  and  C_15
REMARK                            x       y       z     vdW  Elec       q    Type
REMARK                         _______ _______ _______ _____ _____    ______ ____
ROOT
ATOM      1  C   UNL     1       0.669   0.784   0.620  0.00  0.00    +0.264 C 
ENDROOT
BRANCH   1   2
ATOM      2  O   UNL     1      -0.500   0.176   0.076  0.00  0.00    -0.486 OA
BRANCH   2   8
ATOM      3  C   UNL     1      -2.868  -0.237  -0.123  0.00  0.00    +0.161 A 
ATOM      4  C   UNL     1      -4.194   0.013   0.285  0.00  0.00    +0.049 A 
ATOM      5  C   UNL     1      -4.456   0.931   1.304  0.00  0.00    +0.004 A 
ATOM      6  C   UNL     1      -3.406   1.608   1.925  0.00  0.00    +0.004 A 
ATOM      7  C   UNL     1      -2.088   1.369   1.529  0.00  0.00    +0.049 A 
ATOM      8  C   UNL     1      -1.810   0.445   0.503  0.00  0.00    +0.162 A 
BRANCH   3  10
ATOM      9  C   UNL     1      -3.529  -1.912  -1.861  0.00  0.00    +0.277 C 
ATOM     10  O   UNL     1      -2.562  -1.152  -1.142  0.00  0.00    -0.491 OA
ENDBRANCH   3  10
ENDBRANCH   2   8
ENDBRANCH   1   2
BRANCH   1  11
ATOM     11  C   UNL     1       1.913   0.240  -0.091  0.00  0.00    +0.189 C 
BRANCH  11  12
ATOM     12  O   UNL     1       2.014  -1.144   0.126  0.00  0.00    -0.385 OA
ATOM     13  H   UNL     1       1.413  -1.585  -0.530  0.00  0.00    +0.210 HD
ENDBRANCH  11  12
BRANCH  11  14
ATOM     14  C   UNL     1       3.177   0.936   0.430  0.00  0.00    +0.268 C 
BRANCH  14  15
ATOM     15  O   UNL     1       4.323   0.534  -0.321  0.00  0.00    -0.448 OA
BRANCH  15  16
ATOM     16  C   UNL     1       5.059  -0.625  -0.053  0.00  0.00    +0.398 C 
ATOM     17  N   UNL     1       6.146  -0.978  -0.904  0.00  0.00    -0.295 N 
ATOM     18  O   UNL     1       4.781  -1.355   0.938  0.00  0.00    -0.227 OA
ATOM     19  H   UNL     1       6.387  -0.378  -1.724  0.00  0.00    +0.148 HD
ATOM     20  H   UNL     1       6.710  -1.837  -0.716  0.00  0.00    +0.148 HD
ENDBRANCH  15  16
ENDBRANCH  14  15
ENDBRANCH  11  14
ENDBRANCH   1  11
TORSDOF 8
