REMARK  Name = 
REMARK  3 active torsions:
REMARK  status: ('A' for Active; 'I' for Inactive)
REMARK    1  A    between atoms: C_1  and  N_2
REMARK    2  A    between atoms: C_5  and  C_6
REMARK    3  A    between atoms: C_6  and  N_7
REMARK                            x       y       z     vdW  Elec       q    Type
REMARK                         _______ _______ _______ _____ _____    ______ ____
ROOT
ATOM      1  N   UNL     1      -0.667   0.198   0.618  0.00  0.00    -0.298 N 
ATOM      2  C   UNL     1      -1.696  -0.775   0.329  0.00  0.00    +0.048 A 
ATOM      3  C   UNL     1      -1.955  -1.844   1.204  0.00  0.00    +0.024 A 
ATOM      4  C   UNL     1      -3.052  -2.683   0.984  0.00  0.00    +0.002 A 
ATOM      5  C   UNL     1      -3.906  -2.453  -0.098  0.00  0.00    +0.001 A 
ATOM      6  C   UNL     1      -3.655  -1.395  -0.976  0.00  0.00    +0.017 A 
ATOM      7  C   UNL     1      -2.545  -0.568  -0.774  0.00  0.00    +0.034 A 
ATOM      8  S   UNL     1      -2.137   0.705  -1.974  0.00  0.00    -0.086 S 
ATOM      9  C   UNL     1      -1.789   1.935  -0.714  0.00  0.00    +0.034 A 
ATOM     10  C   UNL     1      -2.264   3.243  -0.857  0.00  0.00    +0.017 A 
ATOM     11  C   UNL     1      -1.918   4.218   0.083  0.00  0.00    +0.001 A 
ATOM     12  C   UNL     1      -1.106   3.885   1.171  0.00  0.00    +0.002 A 
ATOM     13  C   UNL     1      -0.649   2.573   1.332  0.00  0.00    +0.024 A 
ATOM     14  C   UNL     1      -0.985   1.587   0.388  0.00  0.00    +0.048 A 
ENDROOT
BRANCH   1  15
ATOM     15  C   UNL     1       0.649  -0.203   1.143  0.00  0.00    +0.116 C 
BRANCH  15  20
ATOM     16  C   UNL     1       4.432  -0.040  -0.075  0.00  0.00    +0.104 C 
ATOM     17  N   UNL     1       3.708  -1.289  -0.371  0.00  0.00    -0.305 NA
ATOM     18  C   UNL     1       2.916  -1.152  -1.599  0.00  0.00    +0.084 C 
ATOM     19  C   UNL     1       1.534  -0.677  -1.200  0.00  0.00    +0.021 C 
ATOM     20  C   UNL     1       1.336  -1.221   0.209  0.00  0.00    +0.022 C 
ATOM     21  C   UNL     1       2.742  -1.601   0.696  0.00  0.00    +0.089 C 
ENDBRANCH  15  20
ENDBRANCH   1  15
TORSDOF 2
