REMARK  Name = 
REMARK  8 active torsions:
REMARK  status: ('A' for Active; 'I' for Inactive)
REMARK    1  A    between atoms: C_1  and  C_2
REMARK    2  A    between atoms: C_2  and  C_3
REMARK    3  A    between atoms: C_4  and  C_5
REMARK    4  A    between atoms: C_5  and  C_6
REMARK    5  A    between atoms: C_5  and  C_7
REMARK    6  A    between atoms: C_7  and  C_8
REMARK    7  A    between atoms: C_8  and  C_9
REMARK    8  A    between atoms: N_16  and  C_17
REMARK                            x       y       z     vdW  Elec       q    Type
REMARK                         _______ _______ _______ _____ _____    ______ ____
ROOT
ATOM      1  C   UNL     1      -0.576   0.293  -0.343  0.00  0.00    +0.140 C 
ATOM      2  C   UNL     1      -1.252  -0.612   0.687  0.00  0.00    +0.237 C 
ATOM      3  O   UNL     1      -0.835  -1.789   0.864  0.00  0.00    -0.274 OA
ATOM      4  N   UNL     1      -2.290  -0.116   1.536  0.00  0.00    -0.239 N 
ATOM      5  C   UNL     1      -2.870   1.168   1.321  0.00  0.00    +0.315 C 
ATOM      6  O   UNL     1      -3.737   1.599   2.130  0.00  0.00    -0.252 OA
ATOM      7  N   UNL     1      -2.490   1.944   0.176  0.00  0.00    -0.228 N 
ATOM      8  C   UNL     1      -3.179   3.203  -0.124  0.00  0.00    +0.143 C 
ATOM      9  C   UNL     1      -1.556   1.386  -0.767  0.00  0.00    +0.239 C 
ATOM     10  O   UNL     1      -1.495   1.865  -1.934  0.00  0.00    -0.274 OA
ATOM     11  H   UNL     1      -2.641  -0.713   2.318  0.00  0.00    +0.159 HD
ENDROOT
BRANCH   1  12
ATOM     12  C   UNL     1       0.662   0.974   0.345  0.00  0.00    +0.085 C 
ATOM     13  C   UNL     1       1.411   1.980  -0.546  0.00  0.00    +0.023 C 
BRANCH  12  15
ATOM     14  C   UNL     1       2.421  -0.837   1.252  0.00  0.00    -0.102 C 
ATOM     15  C   UNL     1       1.632  -0.019   0.849  0.00  0.00    -0.098 C 
BRANCH  14  17
ATOM     16  C   UNL     1       4.067  -2.517   0.553  0.00  0.00    +0.017 C 
ATOM     17  C   UNL     1       3.376  -1.841   1.730  0.00  0.00    +0.085 C 
ENDBRANCH  14  17
ENDBRANCH  12  15
ENDBRANCH   1  12
BRANCH   1  18
ATOM     18  C   UNL     1      -0.146  -0.558  -1.585  0.00  0.00    +0.053 C 
BRANCH  18  19
ATOM     19  C   UNL     1      -1.310  -1.279  -2.231  0.00  0.00    -0.033 C 
ATOM     20  C   UNL     1      -1.431  -2.610  -2.227  0.00  0.00    +0.004 C 
ENDBRANCH  18  19
ENDBRANCH   1  18
TORSDOF 5
