REMARK  Name = 
REMARK  2 active torsions:
REMARK  status: ('A' for Active; 'I' for Inactive)
REMARK    1  A    between atoms: C_1  and  O_2
REMARK    2  A    between atoms: O_2  and  C_3
REMARK                            x       y       z     vdW  Elec       q    Type
REMARK                         _______ _______ _______ _____ _____    ______ ____
ROOT
ATOM      1  C   UNL     1      -0.966   0.450  -0.173  0.00  0.00    +0.206 A 
ATOM      2  C   UNL     1       0.431   0.562   0.082  0.00  0.00    +0.184 A 
ATOM      3  O   UNL     1       1.012   1.755   0.196  0.00  0.00    -0.418 OA
ATOM      4  C   UNL     1       2.311   1.911   0.433  0.00  0.00    +0.337 A 
ATOM      5  O   UNL     1       2.791   3.071   0.528  0.00  0.00    -0.245 OA
ATOM      6  C   UNL     1       3.144   0.799   0.577  0.00  0.00    +0.092 A 
ATOM      7  C   UNL     1       2.595  -0.476   0.468  0.00  0.00    +0.019 A 
ATOM      8  C   UNL     1       1.227  -0.618   0.219  0.00  0.00    +0.022 A 
ATOM      9  C   UNL     1       0.643  -1.895   0.104  0.00  0.00    +0.023 A 
ATOM     10  C   UNL     1      -0.723  -1.959  -0.144  0.00  0.00    +0.025 A 
ATOM     11  C   UNL     1      -1.494  -0.837  -0.277  0.00  0.00    +0.180 A 
ATOM     12  O   UNL     1      -2.741  -1.169  -0.506  0.00  0.00    -0.459 OA
ATOM     13  C   UNL     1      -2.810  -2.488  -0.527  0.00  0.00    +0.196 A 
ATOM     14  C   UNL     1      -1.555  -3.042  -0.303  0.00  0.00    +0.050 A 
ENDROOT
BRANCH   1  16
ATOM     15  C   UNL     1      -1.479   2.914  -0.249  0.00  0.00    +0.277 C 
ATOM     16  O   UNL     1      -1.841   1.540  -0.324  0.00  0.00    -0.488 OA
ENDBRANCH   1  16
TORSDOF 1
