REMARK  Name = 
REMARK  3 active torsions:
REMARK  status: ('A' for Active; 'I' for Inactive)
REMARK    1  A    between atoms: C_1  and  O_2
REMARK    2  A    between atoms: O_2  and  C_3
REMARK    3  A    between atoms: C_3  and  C_6
REMARK                            x       y       z     vdW  Elec       q    Type
REMARK                         _______ _______ _______ _____ _____    ______ ____
ROOT
ATOM      1  C   UNL     1       0.440   0.680  -0.225  0.00  0.00    +0.387 C 
ATOM      2  F   UNL     1       0.256   0.498  -1.592  0.00  0.00    -0.172 F 
ATOM      3  F   UNL     1       1.058   1.906  -0.050  0.00  0.00    -0.172 F 
ENDROOT
BRANCH   1   4
ATOM      4  C   UNL     1       1.363  -0.418   0.329  0.00  0.00    +0.270 C 
ATOM      5 CL   UNL     1       1.637  -0.197   2.078  0.00  0.00    -0.095 Cl
ATOM      6 CL   UNL     1       2.941  -0.389  -0.505  0.00  0.00    -0.095 Cl
ENDBRANCH   1   4
BRANCH   1   8
ATOM      7  C   UNL     1      -1.744  -0.168  -0.071  0.00  0.00    +0.200 C 
ATOM      8  O   UNL     1      -0.789   0.710   0.487  0.00  0.00    -0.321 OA
ENDBRANCH   1   8
TORSDOF 2
