REMARK  Name = 
REMARK  14 active torsions:
REMARK  status: ('A' for Active; 'I' for Inactive)
REMARK    1  A    between atoms: C_1  and  C_2
REMARK    2  A    between atoms: C_2  and  C_3
REMARK    3  A    between atoms: C_3  and  O_4
REMARK    4  A    between atoms: C_3  and  C_8
REMARK    5  A    between atoms: O_4  and  C_5
REMARK    6  A    between atoms: C_5  and  C_6
REMARK    7  A    between atoms: C_8  and  C_9
REMARK    8  A    between atoms: C_8  and  C_15
REMARK    9  A    between atoms: C_8  and  C_21
REMARK   10  A    between atoms: C_9  and  C_10
REMARK   11  A    between atoms: C_10  and  C_11
REMARK   12  A    between atoms: C_10  and  N_12
REMARK   13  A    between atoms: N_12  and  C_13
REMARK   14  A    between atoms: N_12  and  C_14
REMARK                            x       y       z     vdW  Elec       q    Type
REMARK                         _______ _______ _______ _____ _____    ______ ____
ROOT
ATOM      1  C   UNL     1      -0.374   0.464   0.480  0.00  0.00    +0.059 C 
ENDROOT
BRANCH   1   2
ATOM      2  C   UNL     1      -0.668   1.335  -0.795  0.00  0.00    -0.033 A 
ATOM      3  C   UNL     1      -0.917   2.735  -0.728  0.00  0.00    +0.004 A 
ATOM      4  C   UNL     1      -1.156   3.492  -1.878  0.00  0.00    +0.000 A 
ATOM      5  C   UNL     1      -1.196   2.882  -3.127  0.00  0.00    +0.000 A 
ATOM      6  C   UNL     1      -1.028   1.507  -3.225  0.00  0.00    +0.000 A 
ATOM      7  C   UNL     1      -0.788   0.742  -2.081  0.00  0.00    +0.004 A 
ENDBRANCH   1   2
BRANCH   1   8
ATOM      8  C   UNL     1      -0.559   1.315   1.793  0.00  0.00    -0.033 A 
ATOM      9  C   UNL     1       0.343   2.378   2.077  0.00  0.00    +0.004 A 
ATOM     10  C   UNL     1       0.236   3.143   3.240  0.00  0.00    +0.000 A 
ATOM     11  C   UNL     1      -0.773   2.879   4.160  0.00  0.00    +0.000 A 
ATOM     12  C   UNL     1      -1.681   1.854   3.915  0.00  0.00    +0.000 A 
ATOM     13  C   UNL     1      -1.582   1.083   2.753  0.00  0.00    +0.004 A 
ENDBRANCH   1   8
BRANCH   1  14
ATOM     14  C   UNL     1      -1.333  -0.806   0.500  0.00  0.00    +0.191 C 
BRANCH  14  16
ATOM     15  C   UNL     1      -3.791  -1.505   0.698  0.00  0.00    +0.007 C 
ATOM     16  C   UNL     1      -2.809  -0.477   0.139  0.00  0.00    +0.042 C 
ENDBRANCH  14  16
BRANCH  14  17
ATOM     17  O   UNL     1      -0.856  -1.818  -0.393  0.00  0.00    -0.460 OA
BRANCH  17  18
ATOM     18  C   UNL     1      -0.884  -3.193  -0.130  0.00  0.00    +0.304 C 
ATOM     19  C   UNL     1      -0.370  -4.143  -1.156  0.00  0.00    +0.136 C 
ATOM     20  O   UNL     1      -1.296  -3.636   0.977  0.00  0.00    -0.251 OA
ENDBRANCH  17  18
ENDBRANCH  14  17
ENDBRANCH   1  14
BRANCH   1  21
ATOM     21  C   UNL     1       1.126  -0.079   0.547  0.00  0.00    +0.038 C 
BRANCH  21  22
ATOM     22  C   UNL     1       1.876  -0.514  -0.746  0.00  0.00    +0.054 C 
ATOM     23  C   UNL     1       2.573   0.687  -1.428  0.00  0.00    +0.024 C 
BRANCH  22  24
ATOM     24  N   UNL     1       2.817  -1.627  -0.432  0.00  0.00    -0.306 NA
ATOM     25  C   UNL     1       3.175  -2.420  -1.621  0.00  0.00    +0.104 C 
ATOM     26  C   UNL     1       4.032  -1.218   0.297  0.00  0.00    +0.104 C 
ENDBRANCH  22  24
ENDBRANCH  21  22
ENDBRANCH   1  21
TORSDOF 9
