REMARK  Name = 
REMARK  8 active torsions:
REMARK  status: ('A' for Active; 'I' for Inactive)
REMARK    1  A    between atoms: C_1  and  N_2
REMARK    2  A    between atoms: N_2  and  C_3
REMARK    3  A    between atoms: N_2  and  C_4
REMARK    4  A    between atoms: C_6  and  O_7
REMARK    5  A    between atoms: C_13  and  O_14
REMARK    6  A    between atoms: C_21  and  O_22
REMARK    7  A    between atoms: C_23  and  O_24
REMARK    8  A    between atoms: C_27  and  C_28
REMARK                            x       y       z     vdW  Elec       q    Type
REMARK                         _______ _______ _______ _____ _____    ______ ____
ROOT
ATOM      1  C   UNL     1      -2.665  -0.715   0.837  0.00  0.00    +0.133 C 
ATOM      2  C   UNL     1      -1.293  -0.531   0.067  0.00  0.00    +0.089 C 
ATOM      3  C   UNL     1      -0.079  -0.644   1.026  0.00  0.00    +0.135 C 
ATOM      4  C   UNL     1       1.258  -0.653   0.233  0.00  0.00    +0.085 C 
ATOM      5  C   UNL     1       2.521  -0.486   1.080  0.00  0.00    -0.036 C 
ATOM      6  C   UNL     1       2.499  -0.326   2.417  0.00  0.00    +0.013 C 
ATOM      7  C   UNL     1       3.819  -0.454   0.343  0.00  0.00    -0.007 A 
ATOM      8  C   UNL     1       3.850   0.001  -0.999  0.00  0.00    +0.071 A 
ATOM      9  C   UNL     1       5.087   0.046  -1.688  0.00  0.00    +0.128 A 
ATOM     10  C   UNL     1       6.258  -0.383  -1.053  0.00  0.00    +0.046 A 
ATOM     11  C   UNL     1       6.218  -0.865   0.252  0.00  0.00    +0.004 A 
ATOM     12  C   UNL     1       5.011  -0.907   0.946  0.00  0.00    +0.009 A 
ATOM     13  C   UNL     1       2.578   0.409  -1.660  0.00  0.00    +0.197 C 
ATOM     14  O   UNL     1       2.570   0.697  -2.887  0.00  0.00    -0.287 OA
ATOM     15  C   UNL     1       1.297   0.354  -0.902  0.00  0.00    +0.050 C 
ATOM     16  C   UNL     1       0.201   1.052  -1.296  0.00  0.00    +0.141 C 
ATOM     17  C   UNL     1      -1.192   0.810  -0.719  0.00  0.00    +0.188 C 
ATOM     18  C   UNL     1      -1.569   1.946   0.209  0.00  0.00    +0.192 C 
ATOM     19  O   UNL     1      -0.808   2.886   0.400  0.00  0.00    -0.293 OA
ATOM     20  C   UNL     1      -2.907   1.949   0.888  0.00  0.00    +0.211 C 
ATOM     21  C   UNL     1      -3.467   0.557   1.077  0.00  0.00    +0.170 C 
ATOM     22  O   UNL     1      -4.593   0.448   1.542  0.00  0.00    -0.294 OA
ENDROOT
BRANCH  20  23
ATOM     23  C   UNL     1      -3.860   2.824   0.114  0.00  0.00    +0.228 C 
ATOM     24  N   UNL     1      -4.070   4.181   0.507  0.00  0.00    -0.328 N 
ATOM     25  O   UNL     1      -4.445   2.378  -0.910  0.00  0.00    -0.275 OA
ATOM     26  H   UNL     1      -4.720   4.791  -0.037  0.00  0.00    +0.145 HD
ATOM     27  H   UNL     1      -3.573   4.582   1.332  0.00  0.00    +0.145 HD
ENDBRANCH  20  23
BRANCH   1  29
ATOM     28  C   UNL     1      -3.946  -1.546  -1.137  0.00  0.00    +0.105 C 
ATOM     29  N   UNL     1      -3.550  -1.765   0.263  0.00  0.00    -0.299 NA
ATOM     30  C   UNL     1      -3.035  -3.130   0.461  0.00  0.00    +0.105 C 
ENDBRANCH   1  29
BRANCH   3  31
ATOM     31  O   UNL     1      -0.163  -1.800   1.826  0.00  0.00    -0.390 OA
ATOM     32  H   UNL     1      -0.182  -2.587   1.222  0.00  0.00    +0.210 HD
ENDBRANCH   3  31
BRANCH   9  33
ATOM     33  O   UNL     1       5.158   0.518  -2.999  0.00  0.00    -0.506 OA
ATOM     34  H   UNL     1       6.036   0.558  -3.505  0.00  0.00    +0.292 HD
ENDBRANCH   9  33
BRANCH  16  35
ATOM     35  O   UNL     1       0.294   2.089  -2.233  0.00  0.00    -0.507 OA
ATOM     36  H   UNL     1       1.162   2.549  -2.477  0.00  0.00    +0.292 HD
ENDBRANCH  16  35
BRANCH  17  37
ATOM     37  O   UNL     1      -2.115   0.806  -1.782  0.00  0.00    -0.373 OA
ATOM     38  H   UNL     1      -1.814   0.133  -2.448  0.00  0.00    +0.211 HD
ENDBRANCH  17  37
TORSDOF 6
