REMARK  Name = 
REMARK  10 active torsions:
REMARK  status: ('A' for Active; 'I' for Inactive)
REMARK    1  A    between atoms: C_3  and  C_4
REMARK    2  A    between atoms: C_3  and  C_5
REMARK    3  A    between atoms: CA_6  and  C_24
REMARK    4  A    between atoms: CA_10  and  N_11
REMARK    5  A    between atoms: C_12  and  C_14
REMARK    6  A    between atoms: C_15  and  O_16
REMARK    7  A    between atoms: O_16  and  C_17
REMARK    8  A    between atoms: C_21  and  O_22
REMARK    9  A    between atoms: O_22  and  C_23
REMARK   10  A    between atoms: C_24  and  O_25
REMARK                            x       y       z     vdW  Elec       q    Type
REMARK                         _______ _______ _______ _____ _____    ______ ____
ROOT
ATOM      1  C   UNL     1       1.790   1.707  -0.075  0.00  0.00    +0.165 C 
ATOM      2  S   UNL     1       1.684   0.564   1.352  0.00  0.00    -0.127 S 
ATOM      3  C   UNL     1       3.070  -0.516   0.748  0.00  0.00    +0.042 C 
ATOM      4  C   UNL     1       2.442  -1.828   0.250  0.00  0.00    +0.025 C 
ATOM      5  C   UNL     1       4.007  -0.835   1.929  0.00  0.00    +0.025 C 
ATOM      6  CA  UNL     1       3.778   0.205  -0.446  0.00  0.00    +0.201 C 
ATOM      7  N   UNL     1       2.791   1.136  -0.923  0.00  0.00    -0.271 N 
ATOM      8  C   UNL     1       1.796   1.093  -2.020  0.00  0.00    +0.240 C 
ATOM      9  O   UNL     1       1.801   0.688  -3.212  0.00  0.00    -0.273 OA
ATOM     10  CA  UNL     1       0.766   1.663  -1.097  0.00  0.00    +0.190 C 
ENDROOT
BRANCH  10  11
ATOM     11  N   UNL     1      -0.331   0.726  -0.838  0.00  0.00    -0.298 N 
ATOM     12  C   UNL     1      -1.407   1.073   0.048  0.00  0.00    +0.252 C 
ATOM     13  O   UNL     1      -1.315   2.109   0.762  0.00  0.00    -0.270 OA
ATOM     14  H   UNL     1      -0.442  -0.100  -1.469  0.00  0.00    +0.150 HD
BRANCH  12  15
ATOM     15  C   UNL     1      -2.644   0.257   0.107  0.00  0.00    +0.120 A 
ATOM     16  C   UNL     1      -3.902   0.904   0.137  0.00  0.00    +0.136 A 
ATOM     17  C   UNL     1      -5.077   0.133   0.197  0.00  0.00    +0.046 A 
ATOM     18  C   UNL     1      -5.009  -1.257   0.220  0.00  0.00    +0.007 A 
ATOM     19  C   UNL     1      -3.775  -1.900   0.193  0.00  0.00    +0.046 A 
ATOM     20  C   UNL     1      -2.580  -1.156   0.145  0.00  0.00    +0.136 A 
BRANCH  16  21
ATOM     21  O   UNL     1      -3.950   2.308   0.090  0.00  0.00    -0.494 OA
ATOM     22  C   UNL     1      -5.146   3.081   0.109  0.00  0.00    +0.277 C 
ENDBRANCH  16  21
BRANCH  20  23
ATOM     23  O   UNL     1      -1.326  -1.791   0.155  0.00  0.00    -0.494 OA
ATOM     24  C   UNL     1      -1.139  -3.203   0.146  0.00  0.00    +0.277 C 
ENDBRANCH  20  23
ENDBRANCH  12  15
ENDBRANCH  10  11
BRANCH   6  25
ATOM     25  C   UNL     1       5.027   0.959  -0.069  0.00  0.00    +0.327 C 
ATOM     26  OXT UNL     1       4.952   2.056   0.549  0.00  0.00    -0.249 OA
BRANCH  25  27
ATOM     27  O   UNL     1       6.273   0.420  -0.371  0.00  0.00    -0.479 OA
ATOM     28  H   UNL     1       7.125   0.903  -0.112  0.00  0.00    +0.295 HD
ENDBRANCH  25  27
ENDBRANCH   6  25
TORSDOF 6
