REMARK  Name = 
REMARK  3 active torsions:
REMARK  status: ('A' for Active; 'I' for Inactive)
REMARK    1  A    between atoms: C_1  and  N_2
REMARK    2  A    between atoms: C_6  and  C_7
REMARK    3  A    between atoms: C_7  and  C_8
REMARK                            x       y       z     vdW  Elec       q    Type
REMARK                         _______ _______ _______ _____ _____    ______ ____
ROOT
ATOM      1  C   UNL     1      -1.023   0.214   0.589  0.00  0.00    +0.051 C 
ATOM      2  C   UNL     1      -2.232   1.119   0.835  0.00  0.00    -0.026 A 
ATOM      3  C   UNL     1      -2.406   2.380   0.226  0.00  0.00    +0.005 A 
ATOM      4  C   UNL     1      -3.598   3.089   0.400  0.00  0.00    +0.000 A 
ATOM      5  C   UNL     1      -4.646   2.537   1.140  0.00  0.00    +0.001 A 
ATOM      6  C   UNL     1      -4.511   1.267   1.703  0.00  0.00    +0.015 A 
ATOM      7  C   UNL     1      -3.313   0.562   1.561  0.00  0.00    +0.016 A 
ATOM      8  S   UNL     1      -3.179  -1.126   2.186  0.00  0.00    -0.089 S 
ATOM      9  C   UNL     1      -2.610  -1.731   0.584  0.00  0.00    +0.016 A 
ATOM     10  C   UNL     1      -3.267  -2.803  -0.029  0.00  0.00    +0.015 A 
ATOM     11  C   UNL     1      -2.891  -3.215  -1.307  0.00  0.00    +0.001 A 
ATOM     12  C   UNL     1      -1.884  -2.533  -1.993  0.00  0.00    +0.000 A 
ATOM     13  C   UNL     1      -1.242  -1.440  -1.403  0.00  0.00    +0.005 A 
ATOM     14  C   UNL     1      -1.569  -1.045  -0.089  0.00  0.00    -0.026 A 
ENDROOT
BRANCH   1  15
ATOM     15  C   UNL     1       0.205   0.912  -0.068  0.00  0.00    +0.017 C 
BRANCH  15  21
ATOM     16  C   UNL     1       5.103   1.321  -0.732  0.00  0.00    +0.104 C 
ATOM     17  N   UNL     1       3.942   0.426  -0.608  0.00  0.00    -0.305 NA
ATOM     18  C   UNL     1       4.222  -0.651   0.357  0.00  0.00    +0.084 C 
ATOM     19  C   UNL     1       3.123  -1.724   0.286  0.00  0.00    +0.016 C 
ATOM     20  C   UNL     1       1.771  -1.155  -0.182  0.00  0.00    +0.006 C 
ATOM     21  C   UNL     1       1.581   0.292   0.305  0.00  0.00    +0.004 C 
ATOM     22  C   UNL     1       2.739   1.196  -0.216  0.00  0.00    +0.087 C 
ENDBRANCH  15  21
ENDBRANCH   1  15
TORSDOF 2
