REMARK  Name = 
REMARK  13 active torsions:
REMARK  status: ('A' for Active; 'I' for Inactive)
REMARK    1  A    between atoms: C_1  and  O_2
REMARK    2  A    between atoms: O_2  and  C_3
REMARK    3  A    between atoms: C_3  and  C_4
REMARK    4  A    between atoms: C_4  and  C_5
REMARK    5  A    between atoms: C_8  and  O_9
REMARK    6  A    between atoms: O_9  and  C_10
REMARK    7  A    between atoms: C_10  and  C_11
REMARK    8  A    between atoms: C_11  and  O_12
REMARK    9  A    between atoms: C_11  and  C_13
REMARK   10  A    between atoms: C_13  and  N_14
REMARK   11  A    between atoms: N_14  and  C_15
REMARK   12  A    between atoms: C_15  and  C_16
REMARK   13  A    between atoms: C_15  and  C_17
REMARK                            x       y       z     vdW  Elec       q    Type
REMARK                         _______ _______ _______ _____ _____    ______ ____
ROOT
ATOM      1  O   UNL     1      -0.370   0.922  -0.212  0.00  0.00    -0.489 OA
ENDROOT
BRANCH   1   5
ATOM      2  C   UNL     1       3.217  -0.995   0.908  0.00  0.00    -0.045 A 
ATOM      3  C   UNL     1       2.689  -1.208  -0.375  0.00  0.00    +0.007 A 
ATOM      4  C   UNL     1       1.501  -0.583  -0.763  0.00  0.00    +0.046 A 
ATOM      5  C   UNL     1       0.826   0.273   0.128  0.00  0.00    +0.121 A 
ATOM      6  C   UNL     1       1.361   0.492   1.403  0.00  0.00    +0.046 A 
ATOM      7  C   UNL     1       2.550  -0.133   1.791  0.00  0.00    +0.007 A 
BRANCH   2   8
ATOM      8  C   UNL     1       4.515  -1.643   1.315  0.00  0.00    +0.063 C 
BRANCH   8   9
ATOM      9  C   UNL     1       5.708  -0.716   1.052  0.00  0.00    +0.164 C 
BRANCH   9  11
ATOM     10  C   UNL     1       6.635  -1.219  -1.016  0.00  0.00    +0.193 C 
ATOM     11  O   UNL     1       5.777  -0.348  -0.314  0.00  0.00    -0.383 OA
ENDBRANCH   9  11
ENDBRANCH   8   9
ENDBRANCH   2   8
ENDBRANCH   1   5
BRANCH   1  12
ATOM     12  C   UNL     1      -1.037   0.783  -1.465  0.00  0.00    +0.261 C 
BRANCH  12  13
ATOM     13  C   UNL     1      -2.326   1.621  -1.486  0.00  0.00    +0.166 C 
BRANCH  13  14
ATOM     14  O   UNL     1      -2.017   2.992  -1.489  0.00  0.00    -0.387 OA
ATOM     15  H   UNL     1      -1.577   3.204  -0.624  0.00  0.00    +0.210 HD
ENDBRANCH  13  14
BRANCH  13  16
ATOM     16  C   UNL     1      -3.288   1.289  -0.327  0.00  0.00    +0.115 C 
BRANCH  16  17
ATOM     17  N   UNL     1      -3.776  -0.096  -0.431  0.00  0.00    -0.311 NA
ATOM     18  H   UNL     1      -2.999  -0.713  -0.097  0.00  0.00    +0.122 HD
BRANCH  17  19
ATOM     19  C   UNL     1      -4.964  -0.320   0.417  0.00  0.00    +0.048 C 
ATOM     20  C   UNL     1      -6.235   0.059  -0.354  0.00  0.00    +0.023 C 
ATOM     21  C   UNL     1      -5.050  -1.794   0.845  0.00  0.00    +0.023 C 
ENDBRANCH  17  19
ENDBRANCH  16  17
ENDBRANCH  13  16
ENDBRANCH  12  13
ENDBRANCH   1  12
TORSDOF 10
