REMARK  Name = 
REMARK  11 active torsions:
REMARK  status: ('A' for Active; 'I' for Inactive)
REMARK    1  A    between atoms: C_1  and  C_2
REMARK    2  A    between atoms: C_2  and  N_3
REMARK    3  A    between atoms: N_3  and  C_4
REMARK    4  A    between atoms: N_3  and  C_6
REMARK    5  A    between atoms: C_4  and  C_5
REMARK    6  A    between atoms: C_6  and  C_7
REMARK    7  A    between atoms: C_7  and  N_8
REMARK    8  A    between atoms: C_9  and  C_11
REMARK    9  A    between atoms: C_15  and  N_16
REMARK   10  A    between atoms: C_18  and  O_19
REMARK   11  A    between atoms: O_19  and  C_20
REMARK                            x       y       z     vdW  Elec       q    Type
REMARK                         _______ _______ _______ _____ _____    ______ ____
ROOT
ATOM      1  C   UNL     1      -2.800  -0.549  -0.984  0.00  0.00    +0.080 A 
ATOM      2  C   UNL     1      -3.796  -0.538  -1.973  0.00  0.00    +0.038 A 
ATOM      3  C   UNL     1      -5.141  -0.365  -1.635  0.00  0.00    +0.062 A 
ATOM      4 CL   UNL     1      -6.332  -0.349  -2.931  0.00  0.00    -0.082 Cl
ATOM      5  C   UNL     1      -5.511  -0.205  -0.288  0.00  0.00    +0.047 A 
ATOM      6  C   UNL     1      -4.522  -0.235   0.705  0.00  0.00    +0.070 A 
ATOM      7  C   UNL     1      -3.165  -0.420   0.372  0.00  0.00    +0.134 A 
ENDROOT
BRANCH   1   9
ATOM      8  N   UNL     1      -0.338   0.015  -0.745  0.00  0.00    -0.310 N 
ATOM      9  C   UNL     1      -1.386  -0.723  -1.390  0.00  0.00    +0.248 C 
ATOM     10  O   UNL     1      -1.107  -1.508  -2.338  0.00  0.00    -0.270 OA
ATOM     11  H   UNL     1      -0.593   0.798  -0.101  0.00  0.00    +0.149 HD
BRANCH   8  12
ATOM     12  C   UNL     1       1.070  -0.280  -1.006  0.00  0.00    +0.120 C 
BRANCH  12  13
ATOM     13  C   UNL     1       1.984   0.642  -0.192  0.00  0.00    +0.103 C 
BRANCH  13  14
ATOM     14  N   UNL     1       3.403   0.354  -0.498  0.00  0.00    -0.301 NA
BRANCH  14  16
ATOM     15  C   UNL     1       4.374   2.309   0.793  0.00  0.00    +0.020 C 
ATOM     16  C   UNL     1       4.229   1.586  -0.554  0.00  0.00    +0.081 C 
ENDBRANCH  14  16
BRANCH  14  17
ATOM     17  C   UNL     1       3.953  -0.699   0.388  0.00  0.00    +0.081 C 
ATOM     18  C   UNL     1       5.250  -1.285  -0.167  0.00  0.00    +0.020 C 
ENDBRANCH  14  17
ENDBRANCH  13  14
ENDBRANCH  12  13
ENDBRANCH   8  12
ENDBRANCH   1   9
BRANCH   5  19
ATOM     19  N   UNL     1      -6.881  -0.020   0.092  0.00  0.00    -0.357 N 
ATOM     20  H   UNL     1      -7.141   0.104   1.096  0.00  0.00    +0.142 HD
ATOM     21  H   UNL     1      -7.652  -0.006  -0.611  0.00  0.00    +0.142 HD
ENDBRANCH   5  19
BRANCH   7  22
ATOM     22  O   UNL     1      -2.171  -0.506   1.361  0.00  0.00    -0.494 OA
ATOM     23  C   UNL     1      -2.406  -0.396   2.761  0.00  0.00    +0.277 C 
ENDBRANCH   7  22
TORSDOF 8
