REMARK  Name = 
REMARK  12 active torsions:
REMARK  status: ('A' for Active; 'I' for Inactive)
REMARK    1  A    between atoms: N_16  and  C_17
REMARK    2  A    between atoms: N_16  and  C_18
REMARK    3  A    between atoms: C_27  and  O_28
REMARK    4  A    between atoms: O_28  and  C_29
REMARK    5  A    between atoms: N_34  and  C_35
REMARK    6  A    between atoms: N_34  and  C_36
REMARK    7  A    between atoms: C_39  and  O_40
REMARK    8  A    between atoms: O_40  and  C_41
REMARK    9  A    between atoms: C_45  and  O_46
REMARK   10  A    between atoms: O_46  and  C_47
REMARK   11  A    between atoms: C_48  and  O_49
REMARK   12  A    between atoms: O_49  and  C_50
REMARK                            x       y       z     vdW  Elec       q    Type
REMARK                         _______ _______ _______ _____ _____    ______ ____
ROOT
ATOM      1  I   UNL     1       0.922   0.055  -0.029  0.00  0.00    +0.000 I 
ENDROOT
TORSDOF 0
REMARK  Name = 
REMARK  12 active torsions:
REMARK  status: ('A' for Active; 'I' for Inactive)
REMARK    1  A    between atoms: N_16  and  C_17
REMARK    2  A    between atoms: N_16  and  C_18
REMARK    3  A    between atoms: C_27  and  O_28
REMARK    4  A    between atoms: O_28  and  C_29
REMARK    5  A    between atoms: N_34  and  C_35
REMARK    6  A    between atoms: N_34  and  C_36
REMARK    7  A    between atoms: C_39  and  O_40
REMARK    8  A    between atoms: O_40  and  C_41
REMARK    9  A    between atoms: C_45  and  O_46
REMARK   10  A    between atoms: O_46  and  C_47
REMARK   11  A    between atoms: C_48  and  O_49
REMARK   12  A    between atoms: O_49  and  C_50
REMARK                            x       y       z     vdW  Elec       q    Type
REMARK                         _______ _______ _______ _____ _____    ______ ____
ROOT
ATOM      1  I   UNL     1       1.073   0.052  -0.044  0.00  0.00    +0.000 I 
ENDROOT
TORSDOF 0
REMARK  Name = 
REMARK  12 active torsions:
REMARK  status: ('A' for Active; 'I' for Inactive)
REMARK    1  A    between atoms: N_16  and  C_17
REMARK    2  A    between atoms: N_16  and  C_18
REMARK    3  A    between atoms: C_27  and  O_28
REMARK    4  A    between atoms: O_28  and  C_29
REMARK    5  A    between atoms: N_34  and  C_35
REMARK    6  A    between atoms: N_34  and  C_36
REMARK    7  A    between atoms: C_39  and  O_40
REMARK    8  A    between atoms: O_40  and  C_41
REMARK    9  A    between atoms: C_45  and  O_46
REMARK   10  A    between atoms: O_46  and  C_47
REMARK   11  A    between atoms: C_48  and  O_49
REMARK   12  A    between atoms: O_49  and  C_50
REMARK                            x       y       z     vdW  Elec       q    Type
REMARK                         _______ _______ _______ _____ _____    ______ ____
ROOT
ATOM      1  C   UNL     1       2.066   0.028   0.096  0.00  0.00    -0.030 C 
ATOM      2  C   UNL     1       2.605  -0.671  -1.142  0.00  0.00    +0.025 C 
ATOM      3  C   UNL     1       2.114   0.052  -2.386  0.00  0.00    -0.048 A 
ATOM      4  C   UNL     1       0.735   0.208  -2.701  0.00  0.00    +0.007 A 
ATOM      5  C   UNL     1       0.364   1.010  -3.792  0.00  0.00    +0.046 A 
ATOM      6  C   UNL     1       1.258   1.379  -4.662  0.00  0.00    +0.129 A 
ATOM      7  O   UNL     1       0.883   2.199  -5.759  0.00  0.00    -0.452 OA
ATOM      8  C   UNL     1       1.858   2.602  -6.710  0.00  0.00    +0.175 A 
ATOM      9  C   UNL     1       2.949   3.348  -6.277  0.00  0.00    -0.011 A 
ATOM     10  C   UNL     1       3.886   3.788  -7.188  0.00  0.00    -0.040 A 
ATOM     11  C   UNL     1       5.086   4.606  -6.786  0.00  0.00    +0.017 C 
ATOM     12  C   UNL     1       5.336   4.490  -5.285  0.00  0.00    -0.070 C 
ATOM     13  N   UNL     1       4.025   4.793  -4.551  0.00  0.00    +0.381 N 
ATOM     14  C   UNL     1       4.321   6.229  -4.449  0.00  0.00    -0.091 C 
ATOM     15  C   UNL     1       3.154   4.742  -3.367  0.00  0.00    -0.091 C 
ATOM     16  C   UNL     1       3.056   3.639  -4.803  0.00  0.00    -0.027 C 
ATOM     17  C   UNL     1       3.559   2.398  -4.084  0.00  0.00    +0.025 C 
ATOM     18  C   UNL     1       4.926   2.016  -4.629  0.00  0.00    -0.045 A 
ATOM     19  C   UNL     1       5.101   1.697  -6.004  0.00  0.00    +0.053 A 
ATOM     20  C   UNL     1       6.399   1.631  -6.537  0.00  0.00    +0.170 A 
ATOM     21  O   UNL     1       2.903  -4.249   2.338  0.00  0.00    -0.449 OA
ATOM     22  C   UNL     1       2.944  -2.830   2.377  0.00  0.00    +0.170 A 
ATOM     23  C   UNL     1       3.416  -2.172   3.514  0.00  0.00    +0.162 A 
ATOM     24  C   UNL     1       3.457  -0.779   3.533  0.00  0.00    +0.053 A 
ATOM     25  C   UNL     1       3.024  -0.050   2.437  0.00  0.00    -0.044 A 
ATOM     26  C   UNL     1       3.097   1.453   2.524  0.00  0.00    +0.017 C 
ATOM     27  C   UNL     1       2.215   2.097   1.457  0.00  0.00    -0.070 C 
ATOM     28  N   UNL     1       2.562   1.472   0.101  0.00  0.00    +0.381 N 
ATOM     29  C   UNL     1       3.493   2.304  -0.676  0.00  0.00    -0.091 C 
ATOM     30  C   UNL     1       2.230   1.363  -1.327  0.00  0.00    -0.091 C 
ATOM     31  C   UNL     1       2.555  -0.705   1.318  0.00  0.00    -0.053 A 
ATOM     32  C   UNL     1       2.518  -2.095   1.294  0.00  0.00    +0.052 A 
ATOM     33  C   UNL     1       7.427   1.587  -5.742  0.00  0.00    +0.162 A 
ATOM     34  C   UNL     1       7.241   1.595  -4.353  0.00  0.00    +0.050 A 
ATOM     35  C   UNL     1       5.983   1.964  -3.817  0.00  0.00    +0.007 A 
ATOM     36  C   UNL     1       3.735   3.485  -8.532  0.00  0.00    +0.053 A 
ATOM     37  C   UNL     1       2.646   2.733  -8.969  0.00  0.00    +0.165 A 
ATOM     38  C   UNL     1       1.699   2.294  -8.042  0.00  0.00    +0.204 A 
ATOM     39  C   UNL     1       2.590   0.968  -4.518  0.00  0.00    +0.046 A 
ATOM     40  C   UNL     1       3.026   0.428  -3.284  0.00  0.00    +0.007 A 
ENDROOT
BRANCH  23  41
ATOM     41  O   UNL     1       3.850  -2.915   4.644  0.00  0.00    -0.491 OA
ATOM     42  C   UNL     1       4.127  -4.251   4.249  0.00  0.00    +0.277 C 
ENDBRANCH  23  41
BRANCH  33  43
ATOM     43  O   UNL     1       8.739   1.530  -6.281  0.00  0.00    -0.491 OA
ATOM     44  C   UNL     1       8.666   1.468  -7.698  0.00  0.00    +0.277 C 
ENDBRANCH  33  43
BRANCH  37  45
ATOM     45  O   UNL     1       2.502   2.416 -10.345  0.00  0.00    -0.491 OA
ATOM     46  C   UNL     1       3.730   2.647 -11.019  0.00  0.00    +0.277 C 
ENDBRANCH  37  45
BRANCH  38  47
ATOM     47  O   UNL     1       0.579   1.534  -8.470  0.00  0.00    -0.488 OA
ATOM     48  C   UNL     1       0.765   1.056  -9.795  0.00  0.00    +0.277 C 
ENDBRANCH  38  47
TORSDOF 4
