REMARK  Name = 
REMARK  12 active torsions:
REMARK  status: ('A' for Active; 'I' for Inactive)
REMARK    1  A    between atoms: N_13  and  C_14
REMARK    2  A    between atoms: N_13  and  C_15
REMARK    3  A    between atoms: C_23  and  O_24
REMARK    4  A    between atoms: O_24  and  C_25
REMARK    5  A    between atoms: N_30  and  C_31
REMARK    6  A    between atoms: N_30  and  C_32
REMARK    7  A    between atoms: C_35  and  O_36
REMARK    8  A    between atoms: O_36  and  C_37
REMARK    9  A    between atoms: C_41  and  O_42
REMARK   10  A    between atoms: O_42  and  C_43
REMARK   11  A    between atoms: C_44  and  O_45
REMARK   12  A    between atoms: O_45  and  C_46
REMARK                            x       y       z     vdW  Elec       q    Type
REMARK                         _______ _______ _______ _____ _____    ______ ____
ROOT
ATOM      1  C   UNL     1      -3.302  -2.563   1.775  0.00  0.00    -0.030 C 
ATOM      2  C   UNL     1      -3.026  -3.111   0.330  0.00  0.00    +0.025 C 
ATOM      3  C   UNL     1      -1.785  -2.519  -0.317  0.00  0.00    -0.048 A 
ATOM      4  C   UNL     1      -0.551  -2.500   0.358  0.00  0.00    +0.007 A 
ATOM      5  C   UNL     1       0.537  -1.814  -0.183  0.00  0.00    +0.046 A 
ATOM      6  C   UNL     1       0.420  -1.166  -1.425  0.00  0.00    +0.129 A 
ATOM      7  O   UNL     1       1.467  -0.405  -1.962  0.00  0.00    -0.452 OA
ATOM      8  C   UNL     1       2.826  -0.612  -1.683  0.00  0.00    +0.175 A 
ATOM      9  C   UNL     1       3.648   0.498  -1.362  0.00  0.00    -0.011 A 
ATOM     10  C   UNL     1       5.047   0.301  -1.352  0.00  0.00    -0.040 A 
ATOM     11  C   UNL     1       6.010   1.448  -1.298  0.00  0.00    +0.017 C 
ATOM     12  C   UNL     1       5.318   2.777  -1.600  0.00  0.00    -0.070 C 
ATOM     13  N   UNL     1       4.072   2.953  -0.803  0.00  0.00    +0.381 N 
ATOM     14  C   UNL     1       3.565   4.318  -1.101  0.00  0.00    -0.091 C 
ATOM     15  C   UNL     1       4.402   2.882   0.653  0.00  0.00    -0.091 C 
ATOM     16  C   UNL     1       3.050   1.919  -1.227  0.00  0.00    -0.027 C 
ATOM     17  C   UNL     1       1.758   1.942  -0.309  0.00  0.00    +0.025 C 
ATOM     18  C   UNL     1       0.429   2.295  -0.965  0.00  0.00    -0.045 A 
ATOM     19  C   UNL     1      -0.760   1.914  -0.308  0.00  0.00    +0.053 A 
ATOM     20  C   UNL     1      -2.017   2.383  -0.746  0.00  0.00    +0.170 A 
ATOM     21  O   UNL     1      -3.208   2.103  -0.052  0.00  0.00    -0.449 OA
ATOM     22  C   UNL     1      -3.294   1.234   1.038  0.00  0.00    +0.170 A 
ATOM     23  C   UNL     1      -3.330   1.742   2.344  0.00  0.00    +0.162 A 
ATOM     24  C   UNL     1      -3.453   0.848   3.423  0.00  0.00    +0.053 A 
ATOM     25  C   UNL     1      -3.494  -0.536   3.192  0.00  0.00    -0.044 A 
ATOM     26  C   UNL     1      -3.635  -1.512   4.323  0.00  0.00    +0.017 C 
ATOM     27  C   UNL     1      -4.514  -2.739   3.945  0.00  0.00    -0.070 C 
ATOM     28  N   UNL     1      -4.491  -3.158   2.487  0.00  0.00    +0.381 N 
ATOM     29  C   UNL     1      -4.441  -4.645   2.441  0.00  0.00    -0.091 C 
ATOM     30  C   UNL     1      -5.766  -2.733   1.843  0.00  0.00    -0.091 C 
ATOM     31  C   UNL     1      -3.354  -1.041   1.896  0.00  0.00    -0.053 A 
ATOM     32  C   UNL     1      -3.361  -0.143   0.816  0.00  0.00    +0.052 A 
ATOM     33  C   UNL     1      -2.095   3.197  -1.883  0.00  0.00    +0.162 A 
ATOM     34  C   UNL     1      -0.915   3.582  -2.541  0.00  0.00    +0.050 A 
ATOM     35  C   UNL     1       0.330   3.168  -2.067  0.00  0.00    +0.007 A 
ATOM     36  C   UNL     1       5.581  -0.989  -1.418  0.00  0.00    +0.053 A 
ATOM     37  C   UNL     1       4.760  -2.105  -1.626  0.00  0.00    +0.165 A 
ATOM     38  C   UNL     1       3.373  -1.911  -1.810  0.00  0.00    +0.204 A 
ATOM     39  C   UNL     1      -0.780  -1.251  -2.133  0.00  0.00    +0.046 A 
ATOM     40  C   UNL     1      -1.867  -1.946  -1.599  0.00  0.00    +0.007 A 
ENDROOT
BRANCH  23  41
ATOM     41  O   UNL     1      -3.242   3.132   2.526  0.00  0.00    -0.491 OA
ATOM     42  C   UNL     1      -3.243   3.779   3.795  0.00  0.00    +0.277 C 
ENDBRANCH  23  41
BRANCH  33  43
ATOM     43  O   UNL     1      -3.363   3.619  -2.316  0.00  0.00    -0.491 OA
ATOM     44  C   UNL     1      -3.593   4.443  -3.455  0.00  0.00    +0.277 C 
ENDBRANCH  33  43
BRANCH  37  45
ATOM     45  O   UNL     1       5.304  -3.399  -1.683  0.00  0.00    -0.491 OA
ATOM     46  C   UNL     1       6.688  -3.712  -1.569  0.00  0.00    +0.277 C 
ENDBRANCH  37  45
BRANCH  38  47
ATOM     47  O   UNL     1       2.490  -2.953  -2.158  0.00  0.00    -0.488 OA
ATOM     48  C   UNL     1       2.825  -4.316  -2.395  0.00  0.00    +0.277 C 
ENDBRANCH  38  47
TORSDOF 4
