REMARK  Name = 
REMARK  5 active torsions:
REMARK  status: ('A' for Active; 'I' for Inactive)
REMARK    1  A    between atoms: C_1  and  C_2
REMARK    2  A    between atoms: C_8  and  S_21
REMARK    3  A    between atoms: N_13  and  C_14
REMARK    4  A    between atoms: C_19  and  C_20
REMARK    5  A    between atoms: S_21  and  N_22
REMARK                            x       y       z     vdW  Elec       q    Type
REMARK                         _______ _______ _______ _____ _____    ______ ____
ROOT
ATOM      1  C   UNL     1      -1.486  -0.655  -2.358  0.00  0.00    +0.050 C 
ATOM      2  C   UNL     1      -1.017  -1.374  -1.094  0.00  0.00    +0.163 C 
ATOM      3  N   UNL     1       0.363  -1.833  -1.275  0.00  0.00    -0.325 N 
ATOM      4  C   UNL     1       1.485  -1.009  -0.932  0.00  0.00    +0.042 A 
ATOM      5  C   UNL     1       2.752  -1.286  -1.462  0.00  0.00    +0.045 A 
ATOM      6  C   UNL     1       3.852  -0.487  -1.130  0.00  0.00    +0.069 A 
ATOM      7 CL   UNL     1       5.413  -0.901  -1.831  0.00  0.00    -0.081 Cl
ATOM      8  C   UNL     1       3.688   0.605  -0.252  0.00  0.00    +0.124 A 
ATOM      9  C   UNL     1       2.420   0.864   0.292  0.00  0.00    +0.045 A 
ATOM     10  C   UNL     1       1.319   0.061  -0.047  0.00  0.00    +0.060 A 
ATOM     11  C   UNL     1      -0.013   0.287   0.540  0.00  0.00    +0.254 C 
ATOM     12  O   UNL     1      -0.158   1.123   1.474  0.00  0.00    -0.270 OA
ATOM     13  N   UNL     1      -1.140  -0.484   0.075  0.00  0.00    -0.249 N 
ATOM     14  H   UNL     1       0.520  -2.692  -1.850  0.00  0.00    +0.148 HD
ENDROOT
BRANCH  13  15
ATOM     15  C   UNL     1      -2.413  -0.376   0.740  0.00  0.00    +0.041 A 
ATOM     16  C   UNL     1      -2.891  -1.476   1.469  0.00  0.00    +0.024 A 
ATOM     17  C   UNL     1      -4.115  -1.407   2.136  0.00  0.00    +0.002 A 
ATOM     18  C   UNL     1      -4.874  -0.238   2.084  0.00  0.00    +0.000 A 
ATOM     19  C   UNL     1      -4.415   0.864   1.359  0.00  0.00    +0.005 A 
ATOM     20  C   UNL     1      -3.192   0.805   0.668  0.00  0.00    -0.029 A 
ATOM     21  C   UNL     1      -2.734   2.024  -0.086  0.00  0.00    +0.045 C 
ENDBRANCH  13  15
BRANCH   8  22
ATOM     22  S   UNL     1       5.050   1.638   0.207  0.00  0.00    +0.057 S 
ATOM     23  O   UNL     1       4.546   2.888   0.873  0.00  0.00    -0.153 OA
ATOM     24  O   UNL     1       5.827   2.035  -1.017  0.00  0.00    -0.153 OA
BRANCH  22  25
ATOM     25  N   UNL     1       6.083   0.795   1.308  0.00  0.00    -0.203 NA
ATOM     26  H   UNL     1       6.433  -0.057   0.816  0.00  0.00    +0.144 HD
ATOM     27  H   UNL     1       5.482   0.463   2.095  0.00  0.00    +0.144 HD
ENDBRANCH  22  25
ENDBRANCH   8  22
TORSDOF 3
