REMARK  Name = 
REMARK  12 active torsions:
REMARK  status: ('A' for Active; 'I' for Inactive)
REMARK    1  A    between atoms: C_1  and  N_2
REMARK    2  A    between atoms: N_2  and  C_6
REMARK    3  A    between atoms: C_3  and  C_4
REMARK    4  A    between atoms: C_9  and  C_10
REMARK    5  A    between atoms: N_12  and  C_13
REMARK    6  A    between atoms: C_14  and  O_15
REMARK    7  A    between atoms: C_17  and  C_18
REMARK    8  A    between atoms: C_18  and  O_19
REMARK    9  A    between atoms: C_20  and  O_21
REMARK   10  A    between atoms: C_22  and  O_23
REMARK   11  A    between atoms: C_26  and  N_27
REMARK   12  A    between atoms: C_28  and  C_29
REMARK                            x       y       z     vdW  Elec       q    Type
REMARK                         _______ _______ _______ _____ _____    ______ ____
ROOT
ATOM      1  C   UNL     1       3.766  -5.717   0.155  0.00  0.00    +0.065 A 
ATOM      2  C   UNL     1       4.487  -4.505   0.410  0.00  0.00    +0.049 A 
ATOM      3  I   UNL     1       6.384  -4.175  -0.967  0.00  0.00    -0.041 I 
ATOM      4  C   UNL     1       4.395  -3.768   1.654  0.00  0.00    +0.066 A 
ATOM      5  C   UNL     1       3.844  -4.440   2.780  0.00  0.00    +0.049 A 
ATOM      6  I   UNL     1       3.271  -3.154   4.586  0.00  0.00    -0.041 I 
ATOM      7  C   UNL     1       3.500  -5.819   2.695  0.00  0.00    +0.062 A 
ATOM      8  C   UNL     1       3.427  -6.398   1.362  0.00  0.00    +0.058 A 
ATOM      9  I   UNL     1       3.261  -8.604   1.252  0.00  0.00    -0.040 I 
ENDROOT
BRANCH   1  11
ATOM     10  C   UNL     1       4.067  -5.856  -2.433  0.00  0.00    +0.138 C 
ATOM     11  N   UNL     1       3.287  -6.127  -1.217  0.00  0.00    -0.273 N 
ATOM     12  C   UNL     1       2.025  -6.672  -1.557  0.00  0.00    +0.216 C 
ATOM     13  C   UNL     1       0.948  -6.924  -0.547  0.00  0.00    +0.109 C 
ATOM     14  O   UNL     1       1.734  -6.957  -2.730  0.00  0.00    -0.276 OA
ENDBRANCH   1  11
BRANCH   7  15
ATOM     15  N   UNL     1       3.223  -6.694   3.816  0.00  0.00    -0.284 N 
ATOM     16  C   UNL     1       3.610  -6.530   5.123  0.00  0.00    +0.214 C 
ATOM     17  C   UNL     1       3.188  -7.533   6.150  0.00  0.00    +0.109 C 
ATOM     18  O   UNL     1       4.358  -5.625   5.547  0.00  0.00    -0.276 OA
ATOM     19  H   UNL     1       2.973  -7.647   3.552  0.00  0.00    +0.155 HD
ENDBRANCH   7  15
BRANCH   4  20
ATOM     20  C   UNL     1       4.727  -2.311   1.842  0.00  0.00    +0.247 C 
ATOM     21  O   UNL     1       5.356  -1.882   2.807  0.00  0.00    -0.270 OA
ATOM     22  N   UNL     1       4.277  -1.340   0.985  0.00  0.00    -0.301 N 
ATOM     23  H   UNL     1       4.862  -0.543   1.270  0.00  0.00    +0.150 HD
BRANCH  22  24
ATOM     24  C   UNL     1       4.359  -1.467  -0.451  0.00  0.00    +0.160 C 
ATOM     25  C   UNL     1       3.168  -1.941  -1.327  0.00  0.00    +0.270 C 
ATOM     26  O   UNL     1       3.560  -2.005  -2.718  0.00  0.00    -0.341 OA
ATOM     27  C   UNL     1       4.014  -0.736  -3.234  0.00  0.00    +0.178 C 
ATOM     28  C   UNL     1       5.217  -0.219  -2.440  0.00  0.00    +0.176 C 
ATOM     29  C   UNL     1       4.814  -0.139  -0.989  0.00  0.00    +0.171 C 
BRANCH  25  30
ATOM     30  O   UNL     1       2.639  -3.208  -1.012  0.00  0.00    -0.365 OA
ATOM     31  H   UNL     1       3.258  -3.824  -1.425  0.00  0.00    +0.213 HD
ENDBRANCH  25  30
BRANCH  28  32
ATOM     32  O   UNL     1       5.582   1.120  -2.778  0.00  0.00    -0.387 OA
ATOM     33  H   UNL     1       5.640   1.234  -3.736  0.00  0.00    +0.210 HD
ENDBRANCH  28  32
BRANCH  29  34
ATOM     34  O   UNL     1       5.918   0.314  -0.196  0.00  0.00    -0.387 OA
ATOM     35  H   UNL     1       5.796   1.277  -0.132  0.00  0.00    +0.210 HD
ENDBRANCH  29  34
BRANCH  27  36
ATOM     36  C   UNL     1       4.449  -0.830  -4.707  0.00  0.00    +0.190 C 
BRANCH  36  37
ATOM     37  O   UNL     1       3.408  -1.294  -5.547  0.00  0.00    -0.392 OA
ATOM     38  H   UNL     1       3.170  -2.181  -5.226  0.00  0.00    +0.210 HD
ENDBRANCH  36  37
ENDBRANCH  27  36
ENDBRANCH  22  24
ENDBRANCH   4  20
TORSDOF 9
