REMARK  Name = 
REMARK  5 active torsions:
REMARK  status: ('A' for Active; 'I' for Inactive)
REMARK    1  A    between atoms: C_1  and  C_2
REMARK    2  A    between atoms: C_5  and  N_10
REMARK    3  A    between atoms: N_6  and  C_7
REMARK    4  A    between atoms: C_7  and  C_8
REMARK    5  A    between atoms: C_8  and  O_9
REMARK                            x       y       z     vdW  Elec       q    Type
REMARK                         _______ _______ _______ _____ _____    ______ ____
ROOT
ATOM      1  C   UNL     1       2.238  -0.525  -1.246  0.00  0.00    +0.086 C 
ATOM      2  C   UNL     1       1.337   0.506  -0.641  0.00  0.00    +0.108 A 
ATOM      3  N   UNL     1       1.500   1.829  -0.865  0.00  0.00    -0.239 NA
ATOM      4  C   UNL     1       0.517   2.416  -0.157  0.00  0.00    +0.164 A 
ATOM      5  C   UNL     1      -0.220   1.445   0.488  0.00  0.00    +0.216 A 
ATOM      6  N   UNL     1       0.299   0.232   0.189  0.00  0.00    -0.307 N 
ENDROOT
BRANCH   5   7
ATOM      7  N   UNL     1      -1.358   1.703   1.328  0.00  0.00    +0.075 N 
ATOM      8  O   UNL     1      -1.964   0.702   2.049  0.00  0.00    -0.125 OA
ATOM      9  O   UNL     1      -1.786   2.869   1.448  0.00  0.00    -0.125 OA
ENDBRANCH   5   7
BRANCH   6  10
ATOM     10  C   UNL     1      -0.182  -1.099   0.582  0.00  0.00    +0.153 C 
BRANCH  10  11
ATOM     11  C   UNL     1      -1.404  -1.505  -0.242  0.00  0.00    +0.177 C 
BRANCH  11  12
ATOM     12  O   UNL     1      -1.055  -1.617  -1.594  0.00  0.00    -0.393 OA
ATOM     13  H   UNL     1      -1.883  -1.881  -2.072  0.00  0.00    +0.209 HD
ENDBRANCH  11  12
ENDBRANCH  10  11
ENDBRANCH   6  10
TORSDOF 4
