REMARK  Name = 
REMARK  7 active torsions:
REMARK  status: ('A' for Active; 'I' for Inactive)
REMARK    1  A    between atoms: C_1  and  C_2
REMARK    2  A    between atoms: C_2  and  N_3
REMARK    3  A    between atoms: C_2  and  C_4
REMARK    4  A    between atoms: C_2  and  C_12
REMARK    5  A    between atoms: C_4  and  C_5
REMARK    6  A    between atoms: C_8  and  O_9
REMARK    7  A    between atoms: C_12  and  O_13
REMARK                            x       y       z     vdW  Elec       q    Type
REMARK                         _______ _______ _______ _____ _____    ______ ____
ROOT
ATOM      1  C   UNL     1      -2.972   1.462   0.214  0.00  0.00    +0.040 C 
ATOM      2  C   UNL     1      -1.710   0.583   0.322  0.00  0.00    +0.116 C 
ENDROOT
BRANCH   2   3
ATOM      3  N   UNL     1      -1.358   0.458   1.745  0.00  0.00    -0.316 NA
ATOM      4  H   UNL     1      -0.553  -0.199   1.863  0.00  0.00    +0.119 HD
ATOM      5  H   UNL     1      -2.161   0.037   2.268  0.00  0.00    +0.119 HD
ENDBRANCH   2   3
BRANCH   2   6
ATOM      6  C   UNL     1      -2.007  -0.778  -0.285  0.00  0.00    +0.325 C 
ATOM      7  O   UNL     1      -2.464  -0.861  -1.458  0.00  0.00    -0.249 OA
BRANCH   6   8
ATOM      8  O   UNL     1      -1.752  -1.946   0.430  0.00  0.00    -0.479 OA
ATOM      9  H   UNL     1      -1.936  -2.855   0.024  0.00  0.00    +0.295 HD
ENDBRANCH   6   8
ENDBRANCH   2   6
BRANCH   2  10
ATOM     10  C   UNL     1      -0.555   1.282  -0.448  0.00  0.00    +0.068 C 
BRANCH  10  11
ATOM     11  C   UNL     1       0.751   0.519  -0.412  0.00  0.00    -0.045 A 
ATOM     12  C   UNL     1       1.025  -0.468  -1.374  0.00  0.00    +0.007 A 
ATOM     13  C   UNL     1       2.226  -1.182  -1.331  0.00  0.00    +0.045 A 
ATOM     14  C   UNL     1       3.167  -0.917  -0.326  0.00  0.00    +0.117 A 
ATOM     15  C   UNL     1       2.900   0.066   0.632  0.00  0.00    +0.045 A 
ATOM     16  C   UNL     1       1.700   0.782   0.591  0.00  0.00    +0.007 A 
BRANCH  14  17
ATOM     17  O   UNL     1       4.367  -1.623  -0.273  0.00  0.00    -0.507 OA
ATOM     18  H   UNL     1       4.589  -2.341  -0.952  0.00  0.00    +0.292 HD
ENDBRANCH  14  17
ENDBRANCH  10  11
ENDBRANCH   2  10
TORSDOF 6
