REMARK  Name = 
REMARK  5 active torsions:
REMARK  status: ('A' for Active; 'I' for Inactive)
REMARK    1  A    between atoms: C_1  and  C_2
REMARK    2  A    between atoms: C_2  and  C_3
REMARK    3  A    between atoms: C_2  and  C_4
REMARK    4  A    between atoms: C_2  and  C_12
REMARK    5  A    between atoms: C_4  and  C_6
REMARK                            x       y       z     vdW  Elec       q    Type
REMARK                         _______ _______ _______ _____ _____    ______ ____
ROOT
ATOM      1  C   UNL     1      -1.739  -2.225   0.361  0.00  0.00    +0.024 C 
ATOM      2  C   UNL     1      -0.825  -1.090  -0.160  0.00  0.00    +0.054 C 
ATOM      3  C   UNL     1      -0.877  -1.133  -1.709  0.00  0.00    +0.024 C 
ENDROOT
BRANCH   2   4
ATOM      4  C   UNL     1      -1.357   0.226   0.431  0.00  0.00    -0.016 A 
ATOM      5  C   UNL     1      -2.234   1.075  -0.279  0.00  0.00    +0.115 A 
ATOM      6  N   UNL     1      -2.714   2.210   0.294  0.00  0.00    -0.263 NA
ATOM      7  C   UNL     1      -2.391   2.566   1.564  0.00  0.00    +0.111 A 
ATOM      8  C   UNL     1      -1.557   1.750   2.324  0.00  0.00    +0.020 A 
ATOM      9  C   UNL     1      -1.052   0.577   1.763  0.00  0.00    +0.007 A 
ENDBRANCH   2   4
BRANCH   2  10
ATOM     10  C   UNL     1       0.629  -1.332   0.274  0.00  0.00    +0.174 C 
ATOM     11  O   UNL     1       0.874  -2.264   1.091  0.00  0.00    -0.291 OA
BRANCH  10  12
ATOM     12  C   UNL     1       1.784  -0.527  -0.224  0.00  0.00    +0.036 A 
ATOM     13  C   UNL     1       3.076  -1.088  -0.208  0.00  0.00    +0.122 A 
ATOM     14  N   UNL     1       4.146  -0.373  -0.646  0.00  0.00    -0.263 NA
ATOM     15  C   UNL     1       4.018   0.898  -1.106  0.00  0.00    +0.111 A 
ATOM     16  C   UNL     1       2.763   1.504  -1.136  0.00  0.00    +0.020 A 
ATOM     17  C   UNL     1       1.647   0.793  -0.692  0.00  0.00    +0.014 A 
ENDBRANCH  10  12
ENDBRANCH   2  10
TORSDOF 3
