REMARK  Name = 
REMARK  7 active torsions:
REMARK  status: ('A' for Active; 'I' for Inactive)
REMARK    1  A    between atoms: C_1  and  C_2
REMARK    2  A    between atoms: C_2  and  N_3
REMARK    3  A    between atoms: C_2  and  C_4
REMARK    4  A    between atoms: C_4  and  O_5
REMARK    5  A    between atoms: O_5  and  C_6
REMARK    6  A    between atoms: C_7  and  C_8
REMARK    7  A    between atoms: C_12  and  C_13
REMARK                            x       y       z     vdW  Elec       q    Type
REMARK                         _______ _______ _______ _____ _____    ______ ____
ROOT
ATOM      1  C   UNL     1      -1.116  -0.024   0.265  0.00  0.00    +0.126 A 
ATOM      2  C   UNL     1      -1.737  -1.095  -0.408  0.00  0.00    -0.009 A 
ATOM      3  C   UNL     1      -0.974  -2.351  -0.725  0.00  0.00    +0.047 C 
ATOM      4  C   UNL     1      -3.066  -0.962  -0.841  0.00  0.00    +0.007 A 
ATOM      5  C   UNL     1      -3.778   0.209  -0.581  0.00  0.00    +0.001 A 
ATOM      6  C   UNL     1      -3.173   1.260   0.111  0.00  0.00    +0.007 A 
ATOM      7  C   UNL     1      -1.846   1.148   0.552  0.00  0.00    -0.009 A 
ATOM      8  C   UNL     1      -1.200   2.302   1.267  0.00  0.00    +0.047 C 
ENDROOT
BRANCH   1   9
ATOM      9  O   UNL     1       0.220  -0.129   0.659  0.00  0.00    -0.490 OA
BRANCH   9  10
ATOM     10  C   UNL     1       1.281   0.285  -0.194  0.00  0.00    +0.247 C 
BRANCH  10  12
ATOM     11  C   UNL     1       3.790   0.475  -0.401  0.00  0.00    +0.027 C 
ATOM     12  C   UNL     1       2.627  -0.015   0.473  0.00  0.00    +0.085 C 
BRANCH  12  13
ATOM     13  N   UNL     1       2.743  -1.450   0.743  0.00  0.00    -0.325 NA
ATOM     14  H   UNL     1       2.813  -1.969  -0.164  0.00  0.00    +0.119 HD
ATOM     15  H   UNL     1       3.629  -1.621   1.271  0.00  0.00    +0.119 HD
ENDBRANCH  12  13
ENDBRANCH  10  12
ENDBRANCH   9  10
ENDBRANCH   1   9
TORSDOF 4
