REMARK  Name = 
REMARK  10 active torsions:
REMARK  status: ('A' for Active; 'I' for Inactive)
REMARK    1  A    between atoms: C_3  and  C_4
REMARK    2  A    between atoms: C_3  and  C_5
REMARK    3  A    between atoms: CA_6  and  C_34
REMARK    4  A    between atoms: CA_10  and  N_11
REMARK    5  A    between atoms: C_12  and  CA_14
REMARK    6  A    between atoms: CA_14  and  N_15
REMARK    7  A    between atoms: CA_14  and  C_28
REMARK    8  A    between atoms: N_21  and  S_24
REMARK    9  A    between atoms: S_24  and  C_25
REMARK   10  A    between atoms: C_34  and  O_35
REMARK                            x       y       z     vdW  Elec       q    Type
REMARK                         _______ _______ _______ _____ _____    ______ ____
ROOT
ATOM      1  CA  UNL     1       0.779  -2.939  -0.317  0.00  0.00    +0.191 C 
ENDROOT
BRANCH   1   2
ATOM      2  N   UNL     1       1.167  -1.562  -0.638  0.00  0.00    -0.284 N 
ATOM      3  C   UNL     1       1.730  -0.675   0.343  0.00  0.00    +0.311 C 
ATOM      4  O   UNL     1       1.911  -1.077   1.525  0.00  0.00    -0.252 OA
ATOM      5  N   UNL     1       2.110   0.663  -0.021  0.00  0.00    -0.207 N 
ATOM      6  C   UNL     1       1.970   1.262  -1.348  0.00  0.00    +0.140 C 
ATOM      7  C   UNL     1       2.604   2.673  -1.246  0.00  0.00    +0.155 C 
ATOM      8  N   UNL     1       3.011   2.821   0.145  0.00  0.00    -0.158 N 
ATOM      9  C   UNL     1       2.740   1.613   0.819  0.00  0.00    +0.331 C 
ATOM     10  O   UNL     1       3.033   1.407   2.027  0.00  0.00    -0.250 OA
ATOM     11  H   UNL     1       0.942  -1.184  -1.585  0.00  0.00    +0.151 HD
BRANCH   8  12
ATOM     12  S   UNL     1       3.910   4.153   0.792  0.00  0.00    +0.046 S 
ATOM     13  C   UNL     1       3.684   5.590  -0.235  0.00  0.00    +0.219 C 
ATOM     14  O   UNL     1       3.416   4.466   2.177  0.00  0.00    -0.155 OA
ATOM     15  O   UNL     1       5.370   3.799   0.844  0.00  0.00    -0.155 OA
ENDBRANCH   8  12
ENDBRANCH   1   2
BRANCH   1  16
ATOM     16  C   UNL     1       0.920  -3.828  -1.537  0.00  0.00    -0.018 A 
ATOM     17  C   UNL     1       1.885  -4.854  -1.552  0.00  0.00    +0.006 A 
ATOM     18  C   UNL     1       2.055  -5.648  -2.690  0.00  0.00    +0.000 A 
ATOM     19  C   UNL     1       1.267  -5.430  -3.823  0.00  0.00    +0.000 A 
ATOM     20  C   UNL     1       0.304  -4.420  -3.819  0.00  0.00    +0.000 A 
ATOM     21  C   UNL     1       0.131  -3.620  -2.685  0.00  0.00    +0.006 A 
ENDBRANCH   1  16
BRANCH   1  23
ATOM     22  N   UNL     1      -1.618  -2.035  -0.165  0.00  0.00    -0.300 N 
ATOM     23  C   UNL     1      -0.623  -2.990   0.236  0.00  0.00    +0.239 C 
ATOM     24  O   UNL     1      -0.929  -3.915   1.041  0.00  0.00    -0.273 OA
ATOM     25  H   UNL     1      -1.430  -1.414  -0.978  0.00  0.00    +0.150 HD
BRANCH  22  35
ATOM     26  C   UNL     1      -2.991  -1.264   1.712  0.00  0.00    +0.165 C 
ATOM     27  S   UNL     1      -1.482  -0.405   2.304  0.00  0.00    -0.127 S 
ATOM     28  C   UNL     1      -2.110   1.279   1.830  0.00  0.00    +0.042 C 
ATOM     29  C   UNL     1      -1.777   2.275   2.956  0.00  0.00    +0.025 C 
ATOM     30  C   UNL     1      -1.359   1.713   0.558  0.00  0.00    +0.025 C 
ATOM     31  CA  UNL     1      -3.635   1.164   1.515  0.00  0.00    +0.201 C 
ATOM     32  N   UNL     1      -3.809  -0.223   1.170  0.00  0.00    -0.271 N 
ATOM     33  C   UNL     1      -3.825  -0.948  -0.123  0.00  0.00    +0.240 C 
ATOM     34  O   UNL     1      -4.318  -0.731  -1.260  0.00  0.00    -0.273 OA
ATOM     35  CA  UNL     1      -2.940  -2.000   0.468  0.00  0.00    +0.190 C 
BRANCH  31  36
ATOM     36  C   UNL     1      -4.540   1.502   2.675  0.00  0.00    +0.327 C 
ATOM     37  OXT UNL     1      -4.641   0.718   3.656  0.00  0.00    -0.249 OA
BRANCH  36  38
ATOM     38  O   UNL     1      -5.242   2.703   2.694  0.00  0.00    -0.479 OA
ATOM     39  H   UNL     1      -5.165   3.372   1.937  0.00  0.00    +0.295 HD
ENDBRANCH  36  38
ENDBRANCH  31  36
ENDBRANCH  22  35
ENDBRANCH   1  23
TORSDOF 7
