REMARK  Name = 
REMARK  1 active torsions:
REMARK  status: ('A' for Active; 'I' for Inactive)
REMARK    1  A    between atoms: C_1  and  N_2
REMARK                            x       y       z     vdW  Elec       q    Type
REMARK                         _______ _______ _______ _____ _____    ______ ____
ROOT
ATOM      1  C   UNL     1      -2.740   0.925  -2.191  0.00  0.00    +0.105 C 
ATOM      2  N   UNL     1      -2.695   1.470  -0.823  0.00  0.00    -0.302 NA
ATOM      3  C   UNL     1      -3.295   0.546   0.157  0.00  0.00    +0.103 C 
ATOM      4  C   UNL     1      -2.447  -0.722   0.343  0.00  0.00    +0.121 C 
ATOM      5  N   UNL     1      -1.008  -0.415   0.367  0.00  0.00    -0.320 N 
ATOM      6  C   UNL     1      -0.606   0.997   0.565  0.00  0.00    +0.118 C 
ATOM      7  C   UNL     1      -1.333   1.924  -0.445  0.00  0.00    +0.111 C 
ATOM      8  C   UNL     1       0.896   1.278   0.533  0.00  0.00    -0.022 A 
ATOM      9  C   UNL     1       1.420   2.209   1.452  0.00  0.00    +0.006 A 
ATOM     10  C   UNL     1       2.763   2.587   1.403  0.00  0.00    +0.000 A 
ATOM     11  C   UNL     1       3.604   2.054   0.429  0.00  0.00    +0.000 A 
ATOM     12  C   UNL     1       3.106   1.141  -0.501  0.00  0.00    +0.004 A 
ATOM     13  C   UNL     1       1.754   0.758  -0.471  0.00  0.00    -0.038 A 
ATOM     14  C   UNL     1       1.275  -0.309  -1.412  0.00  0.00    +0.072 C 
ATOM     15  C   UNL     1       0.989  -1.532  -0.596  0.00  0.00    -0.022 A 
ATOM     16  C   UNL     1       1.851  -2.639  -0.660  0.00  0.00    +0.006 A 
ATOM     17  C   UNL     1       1.642  -3.743   0.168  0.00  0.00    +0.000 A 
ATOM     18  C   UNL     1       0.584  -3.744   1.076  0.00  0.00    +0.002 A 
ATOM     19  C   UNL     1      -0.272  -2.644   1.156  0.00  0.00    +0.023 A 
ATOM     20  C   UNL     1      -0.079  -1.524   0.325  0.00  0.00    +0.034 A 
ENDROOT
TORSDOF 0
