REMARK  Name = 
REMARK  31 active torsions:
REMARK  status: ('A' for Active; 'I' for Inactive)
REMARK    1  A    between atoms: C_1  and  C_2
REMARK    2  A    between atoms: C_2  and  C_3
REMARK    3  A    between atoms: C_3  and  C_4
REMARK    4  A    between atoms: C_4  and  C_5
REMARK    5  A    between atoms: C_5  and  O_6
REMARK    6  A    between atoms: O_6  and  C_7
REMARK    7  A    between atoms: C_10  and  C_13
REMARK    8  A    between atoms: C_15  and  C_18
REMARK    9  A    between atoms: C_21  and  C_24
REMARK   10  A    between atoms: N_26  and  C_27
REMARK   11  A    between atoms: C_29  and  O_30
REMARK   12  A    between atoms: C_31  and  O_32
REMARK   13  A    between atoms: C_37  and  O_38
REMARK   14  A    between atoms: C_39  and  C_40
REMARK   15  A    between atoms: C_45  and  C_84
REMARK   16  A    between atoms: C_49  and  C_68
REMARK   17  A    between atoms: C_55  and  O_56
REMARK   18  A    between atoms: C_61  and  C_65
REMARK   19  A    between atoms: C_65  and  C_66
REMARK   20  A    between atoms: C_65  and  O_67
REMARK   21  A    between atoms: C_68  and  O_69
REMARK   22  A    between atoms: C_68  and  C_70
REMARK   23  A    between atoms: C_70  and  O_71
REMARK   24  A    between atoms: C_70  and  C_72
REMARK   25  A    between atoms: C_74  and  O_75
REMARK   26  A    between atoms: O_75  and  S_76
REMARK   27  A    between atoms: S_76  and  O_77
REMARK   28  A    between atoms: C_80  and  O_81
REMARK   29  A    between atoms: C_84  and  O_85
REMARK   30  A    between atoms: C_84  and  C_86
REMARK   31  A    between atoms: C_86  and  C_87
REMARK                            x       y       z     vdW  Elec       q    Type
REMARK                         _______ _______ _______ _____ _____    ______ ____
ROOT
ATOM      1  C   UNL     1      -1.816   1.084 -11.150  0.00  0.00    +0.162 C 
ATOM      2  C   UNL     1      -4.168  -1.119 -10.642  0.00  0.00    +0.067 C 
ATOM      3  C   UNL     1      -6.559  -3.181  -9.951  0.00  0.00    +0.163 C 
ATOM      4  C   UNL     1      -8.587  -4.734  -9.405  0.00  0.00    +0.231 C 
ATOM      5  N   UNL     1      -7.483  -6.297  -9.214  0.00  0.00    -0.287 N 
ATOM      6  C   UNL     1      -7.196  -5.596  -8.095  0.00  0.00    +0.238 C 
ATOM      7  O   UNL     1      -7.663  -6.009  -7.066  0.00  0.00    -0.274 OA
ATOM      8  C   UNL     1      -5.823  -5.660  -8.254  0.00  0.00    +0.191 C 
ATOM      9  C   UNL     1      -5.181  -6.505  -7.161  0.00  0.00    +0.148 C 
ATOM     10  C   UNL     1      -4.527  -5.438  -6.242  0.00  0.00    +0.034 C 
ATOM     11  C   UNL     1      -3.142  -5.031  -5.884  0.00  0.00    +0.012 C 
ATOM     12  C   UNL     1      -4.836  -4.082  -6.889  0.00  0.00    +0.114 C 
ATOM     13  N   UNL     1      -5.042  -4.385  -8.331  0.00  0.00    -0.285 N 
ATOM     14  C   UNL     1      -4.461  -3.632  -9.438  0.00  0.00    +0.239 C 
ATOM     15  O   UNL     1      -3.732  -2.713  -9.091  0.00  0.00    -0.273 OA
ATOM     16  C   UNL     1      -4.007  -4.282 -10.727  0.00  0.00    +0.188 C 
ATOM     17  N   UNL     1      -2.739  -3.496 -10.904  0.00  0.00    -0.300 N 
ATOM     18  C   UNL     1      -2.249  -2.967 -12.232  0.00  0.00    +0.237 C 
ATOM     19  O   UNL     1      -3.100  -2.130 -12.434  0.00  0.00    -0.274 OA
ATOM     20  C   UNL     1      -0.850  -2.578 -12.469  0.00  0.00    +0.190 C 
ATOM     21  N   UNL     1      -0.872  -1.113 -12.699  0.00  0.00    -0.300 N 
ATOM     22  C   UNL     1      -0.512  -0.608 -13.993  0.00  0.00    +0.234 C 
ATOM     23  O   UNL     1      -1.060  -1.192 -14.934  0.00  0.00    -0.274 OA
ATOM     24  C   UNL     1      -0.468   0.787 -14.278  0.00  0.00    +0.164 C 
ATOM     25  C   UNL     1      -1.307   1.233 -15.519  0.00  0.00    +0.065 C 
ATOM     26  C   UNL     1      -0.286   1.400 -16.642  0.00  0.00    +0.134 C 
ATOM     27  C   UNL     1       1.076   1.231 -16.022  0.00  0.00    +0.140 C 
ATOM     28  N   UNL     1       0.936   1.452 -14.586  0.00  0.00    -0.286 N 
ATOM     29  C   UNL     1       1.892   2.118 -13.846  0.00  0.00    +0.239 C 
ATOM     30  O   UNL     1       2.765   2.725 -14.419  0.00  0.00    -0.273 OA
ATOM     31  C   UNL     1       1.401   2.769 -12.919  0.00  0.00    +0.187 C 
ATOM     32  N   UNL     1       1.618   3.905 -12.825  0.00  0.00    -0.300 N 
ATOM     33  C   UNL     1       0.275   2.764 -11.503  0.00  0.00    +0.234 C 
ATOM     34  O   UNL     1       1.977   3.500 -11.430  0.00  0.00    -0.274 OA
ATOM     35  H   UNL     1      -7.801  -6.539 -10.070  0.00  0.00    +0.151 HD
ATOM     36  H   UNL     1      -2.136  -3.814 -10.229  0.00  0.00    +0.150 HD
ATOM     37  H   UNL     1      -1.321  -0.526 -12.026  0.00  0.00    +0.150 HD
ATOM     38  H   UNL     1       1.870   4.914 -13.797  0.00  0.00    +0.150 HD
ENDROOT
BRANCH   1  41
ATOM     39  C   UNL     1       2.454   4.970 -11.825  0.00  0.00    +0.245 C 
ATOM     40  O   UNL     1       3.605   6.408 -12.470  0.00  0.00    -0.270 OA
ATOM     41  N   UNL     1       0.347   3.233 -11.530  0.00  0.00    -0.300 N 
ATOM     42  H   UNL     1       1.291   4.652 -12.158  0.00  0.00    +0.150 HD
BRANCH  39  46
ATOM     43  C   UNL     1       8.124   5.769  -9.968  0.00  0.00    +0.004 A 
ATOM     44  C   UNL     1       8.585   6.796 -10.741  0.00  0.00    +0.011 A 
ATOM     45  C   UNL     1       6.920   7.278 -11.563  0.00  0.00    +0.014 A 
ATOM     46  C   UNL     1       4.781   6.353 -11.825  0.00  0.00    +0.037 A 
ATOM     47  C   UNL     1       5.893   6.135 -10.914  0.00  0.00    +0.014 A 
ATOM     48  C   UNL     1       6.797   5.420 -10.103  0.00  0.00    +0.011 A 
BRANCH  43  51
ATOM     49  C   UNL     1       9.866   3.169  -8.128  0.00  0.00    +0.168 A 
ATOM     50  C   UNL     1       9.101   3.546  -9.192  0.00  0.00    +0.081 A 
ATOM     51  C   UNL     1       8.899   4.933  -9.048  0.00  0.00    +0.114 A 
ATOM     52  N   UNL     1       9.511   5.399  -7.951  0.00  0.00    -0.078 NA
ATOM     53  O   UNL     1      10.140   4.281  -7.373  0.00  0.00    -0.354 OA
BRANCH  49  57
ATOM     54  C   UNL     1      11.309  -0.685  -6.714  0.00  0.00    +0.121 A 
ATOM     55  C   UNL     1      10.616   0.148  -5.947  0.00  0.00    +0.046 A 
ATOM     56  C   UNL     1       9.990   1.295  -6.497  0.00  0.00    +0.015 A 
ATOM     57  C   UNL     1      10.312   1.842  -7.717  0.00  0.00    +0.020 A 
ATOM     58  C   UNL     1      11.000   1.052  -8.516  0.00  0.00    +0.015 A 
ATOM     59  C   UNL     1      11.256  -0.211  -7.903  0.00  0.00    +0.046 A 
BRANCH  54  60
ATOM     60  O   UNL     1      11.838  -1.896  -6.518  0.00  0.00    -0.492 OA
BRANCH  60  61
ATOM     61  C   UNL     1      13.199  -2.191  -6.880  0.00  0.00    +0.229 C 
BRANCH  61  62
ATOM     62  C   UNL     1      13.435  -2.090  -8.365  0.00  0.00    +0.041 C 
BRANCH  62  63
ATOM     63  C   UNL     1      13.353  -0.585  -8.874  0.00  0.00    +0.003 C 
BRANCH  63  65
ATOM     64  C   UNL     1      15.445   0.003  -8.461  0.00  0.00    +0.004 C 
ATOM     65  C   UNL     1      14.060   0.347  -8.099  0.00  0.00    -0.003 C 
ENDBRANCH  63  65
ENDBRANCH  62  63
ENDBRANCH  61  62
ENDBRANCH  60  61
ENDBRANCH  54  60
ENDBRANCH  49  57
ENDBRANCH  43  51
ENDBRANCH  39  46
ENDBRANCH   1  41
BRANCH   3  66
ATOM     66  O   UNL     1      -8.377  -5.056  -9.387  0.00  0.00    -0.387 OA
ATOM     67  H   UNL     1      -9.516  -6.520  -8.919  0.00  0.00    +0.210 HD
ENDBRANCH   3  66
BRANCH   4  68
ATOM     68  O   UNL     1     -10.480  -5.171  -8.330  0.00  0.00    -0.372 OA
ATOM     69  H   UNL     1     -10.072  -5.652  -7.594  0.00  0.00    +0.212 HD
ENDBRANCH   4  68
BRANCH   9  70
ATOM     70  O   UNL     1      -4.706  -7.642  -7.919  0.00  0.00    -0.389 OA
ATOM     71  H   UNL     1      -3.764  -7.473  -8.169  0.00  0.00    +0.210 HD
ENDBRANCH   9  70
BRANCH  26  72
ATOM     72  O   UNL     1       0.254   2.405 -17.532  0.00  0.00    -0.390 OA
ATOM     73  H   UNL     1       0.018   3.045 -16.884  0.00  0.00    +0.210 HD
ENDBRANCH  26  72
BRANCH  31  74
ATOM     74  C   UNL     1      -0.308   3.356 -13.146  0.00  0.00    +0.141 C 
ATOM     75  C   UNL     1      -0.552   4.690 -13.384  0.00  0.00    +0.040 C 
BRANCH  74  76
ATOM     76  O   UNL     1      -0.622   2.547 -13.922  0.00  0.00    -0.390 OA
ATOM     77  H   UNL     1      -0.026   2.539 -14.667  0.00  0.00    +0.210 HD
ENDBRANCH  74  76
ENDBRANCH  31  74
BRANCH  20  78
ATOM     78  C   UNL     1      -0.073  -3.635 -11.717  0.00  0.00    +0.176 C 
BRANCH  78  79
ATOM     79  O   UNL     1       0.413  -4.553 -12.709  0.00  0.00    -0.387 OA
ATOM     80  H   UNL     1       1.214  -5.000 -13.055  0.00  0.00    +0.210 HD
ENDBRANCH  78  79
BRANCH  78  81
ATOM     81  C   UNL     1      -0.765  -4.504 -10.684  0.00  0.00    +0.175 C 
BRANCH  81  82
ATOM     82  C   UNL     1      -0.014  -5.593 -10.160  0.00  0.00    -0.013 A 
ATOM     83  C   UNL     1      -0.492  -6.680  -9.519  0.00  0.00    +0.058 A 
ATOM     84  C   UNL     1       0.414  -7.595  -8.952  0.00  0.00    +0.200 A 
ATOM     85  C   UNL     1       1.747  -7.537  -9.259  0.00  0.00    +0.161 A 
ATOM     86  C   UNL     1       2.183  -6.431  -9.912  0.00  0.00    +0.049 A 
ATOM     87  C   UNL     1       1.317  -5.489 -10.377  0.00  0.00    +0.010 A 
BRANCH  85  88
ATOM     88  O   UNL     1       2.596  -8.554  -8.927  0.00  0.00    -0.503 OA
ATOM     89  H   UNL     1       3.547  -8.533  -9.128  0.00  0.00    +0.292 HD
ENDBRANCH  85  88
BRANCH  84  90
ATOM     90  O   UNL     1      -0.012  -8.543  -8.025  0.00  0.00    -0.321 OA
BRANCH  90  91
ATOM     91  S   UNL     1       1.108  -9.587  -7.237  0.00  0.00    +0.251 S 
ATOM     92  O   UNL     1       2.130  -8.782  -6.548  0.00  0.00    -0.108 OA
ATOM     93  O   UNL     1       0.376 -10.491  -6.349  0.00  0.00    -0.108 OA
BRANCH  91  94
ATOM     94  O   UNL     1       1.842 -10.536  -8.457  0.00  0.00    -0.222 OA
ATOM     95  H   UNL     1       1.190 -11.050  -8.975  0.00  0.00    +0.248 HD
ENDBRANCH  91  94
ENDBRANCH  90  91
ENDBRANCH  84  90
ENDBRANCH  81  82
BRANCH  81  96
ATOM     96  O   UNL     1      -1.950  -5.164 -11.286  0.00  0.00    -0.385 OA
ATOM     97  H   UNL     1      -2.557  -4.439 -11.651  0.00  0.00    +0.210 HD
ENDBRANCH  81  96
ENDBRANCH  78  81
ENDBRANCH  20  78
BRANCH  16  98
ATOM     98  C   UNL     1      -4.673  -5.593 -10.653  0.00  0.00    +0.152 C 
BRANCH  98  99
ATOM     99  O   UNL     1      -5.999  -5.315 -10.357  0.00  0.00    -0.389 OA
ATOM    100  H   UNL     1      -6.017  -4.516  -9.998  0.00  0.00    +0.210 HD
ENDBRANCH  98  99
BRANCH  98 101
ATOM    101  C   UNL     1      -3.951  -6.504  -9.746  0.00  0.00    +0.129 C 
BRANCH 101 102
ATOM    102  C   UNL     1      -3.696  -7.865 -10.336  0.00  0.00    +0.213 C 
ATOM    103  N   UNL     1      -2.391  -8.363 -10.316  0.00  0.00    -0.329 N 
ATOM    104  O   UNL     1      -4.601  -8.500 -10.878  0.00  0.00    -0.276 OA
ATOM    105  H   UNL     1      -2.108  -9.223 -10.756  0.00  0.00    +0.145 HD
ATOM    106  H   UNL     1      -1.611  -7.982  -9.886  0.00  0.00    +0.145 HD
ENDBRANCH 101 102
ENDBRANCH  98 101
ENDBRANCH  16  98
TORSDOF 28
