REMARK  Name = 
REMARK  6 active torsions:
REMARK  status: ('A' for Active; 'I' for Inactive)
REMARK    1  A    between atoms: C_6  and  C_7
REMARK    2  A    between atoms: C_7  and  O_8
REMARK    3  A    between atoms: O_8  and  C_9
REMARK    4  A    between atoms: C_9  and  C_10
REMARK    5  A    between atoms: C_9  and  C_16
REMARK    6  A    between atoms: C_10  and  N_11
REMARK                            x       y       z     vdW  Elec       q    Type
REMARK                         _______ _______ _______ _____ _____    ______ ____
ROOT
ATOM      1  C   UNL     1      -0.410   0.828   0.383  0.00  0.00    +0.170 C 
ENDROOT
BRANCH   1   2
ATOM      2  C   UNL     1      -1.182  -0.203  -0.432  0.00  0.00    +0.001 A 
ATOM      3  C   UNL     1      -1.151  -1.590  -0.139  0.00  0.00    +0.048 A 
ATOM      4 CL   UNL     1      -0.190  -2.262   1.174  0.00  0.00    -0.083 Cl
ATOM      5  C   UNL     1      -1.907  -2.482  -0.909  0.00  0.00    +0.040 A 
ATOM      6  C   UNL     1      -2.700  -2.017  -1.961  0.00  0.00    +0.042 A 
ATOM      7 CL   UNL     1      -3.646  -3.145  -2.914  0.00  0.00    -0.083 Cl
ATOM      8  C   UNL     1      -2.742  -0.652  -2.250  0.00  0.00    +0.020 A 
ATOM      9  C   UNL     1      -1.991   0.248  -1.492  0.00  0.00    +0.009 A 
ENDBRANCH   1   2
BRANCH   1  10
ATOM     10  O   UNL     1       0.916   0.393   0.625  0.00  0.00    -0.366 OA
BRANCH  10  11
ATOM     11  C   UNL     1       1.742   0.645  -0.494  0.00  0.00    +0.197 C 
BRANCH  11  17
ATOM     12 CL   UNL     1       6.985  -2.277   0.401  0.00  0.00    -0.083 Cl
ATOM     13  C   UNL     1       5.476  -1.421   0.140  0.00  0.00    +0.042 A 
ATOM     14  C   UNL     1       5.241  -0.205   0.788  0.00  0.00    +0.040 A 
ATOM     15  C   UNL     1       4.037   0.482   0.587  0.00  0.00    +0.048 A 
ATOM     16 CL   UNL     1       3.780   1.993   1.455  0.00  0.00    -0.083 Cl
ATOM     17  C   UNL     1       3.061  -0.047  -0.285  0.00  0.00    -0.004 A 
ATOM     18  C   UNL     1       3.302  -1.281  -0.914  0.00  0.00    +0.009 A 
ATOM     19  C   UNL     1       4.505  -1.960  -0.707  0.00  0.00    +0.020 A 
ENDBRANCH  11  17
ENDBRANCH  10  11
ENDBRANCH   1  10
BRANCH   1  20
ATOM     20  C   UNL     1      -1.101   1.085   1.731  0.00  0.00    +0.159 C 
BRANCH  20  21
ATOM     21  N   UNL     1      -2.458   1.593   1.537  0.00  0.00    -0.334 N 
ATOM     22  C   UNL     1      -3.597   0.881   1.548  0.00  0.00    +0.107 A 
ATOM     23  C   UNL     1      -4.631   1.737   1.247  0.00  0.00    +0.130 A 
ATOM     24  N   UNL     1      -4.146   2.979   1.040  0.00  0.00    -0.244 NA
ATOM     25  C   UNL     1      -2.815   2.852   1.223  0.00  0.00    +0.199 A 
ENDBRANCH  20  21
ENDBRANCH   1  20
TORSDOF 6
