REMARK  Name = 
REMARK  2 active torsions:
REMARK  status: ('A' for Active; 'I' for Inactive)
REMARK    1  A    between atoms: C_1  and  C_2
REMARK    2  A    between atoms: C_8  and  C_9
REMARK                            x       y       z     vdW  Elec       q    Type
REMARK                         _______ _______ _______ _____ _____    ______ ____
ROOT
ATOM      1  C   UNL     1      -3.491  -1.903  -0.761  0.00  0.00    +0.086 C 
ATOM      2  C   UNL     1      -2.717  -1.795   0.517  0.00  0.00    +0.111 A 
ATOM      3  N   UNL     1      -2.771  -2.749   1.473  0.00  0.00    -0.240 NA
ATOM      4  C   UNL     1      -1.913  -2.324   2.423  0.00  0.00    +0.136 A 
ATOM      5  C   UNL     1      -1.366  -1.124   2.029  0.00  0.00    +0.065 A 
ATOM      6  C   UNL     1      -0.277  -0.364   2.706  0.00  0.00    +0.197 C 
ATOM      7  N   UNL     1       0.890  -0.346   1.832  0.00  0.00    -0.276 NA
ATOM      8  C   UNL     1       0.943   0.181   0.639  0.00  0.00    +0.078 C 
ATOM      9  C   UNL     1      -0.221   0.906   0.035  0.00  0.00    +0.026 A 
ATOM     10  C   UNL     1      -1.554   0.415   0.101  0.00  0.00    +0.057 A 
ATOM     11  C   UNL     1      -2.590   1.157  -0.493  0.00  0.00    +0.028 A 
ATOM     12  C   UNL     1      -2.319   2.343  -1.175  0.00  0.00    +0.022 A 
ATOM     13  C   UNL     1      -1.012   2.819  -1.257  0.00  0.00    +0.042 A 
ATOM     14 CL   UNL     1      -0.675   4.316  -2.107  0.00  0.00    -0.084 Cl
ATOM     15  C   UNL     1       0.028   2.111  -0.652  0.00  0.00    +0.032 A 
ATOM     16  N   UNL     1      -1.870  -0.785   0.833  0.00  0.00    -0.298 N 
ENDROOT
BRANCH   8  17
ATOM     17  C   UNL     1       2.227   0.091  -0.101  0.00  0.00    +0.036 A 
ATOM     18  C   UNL     1       3.445   0.227   0.590  0.00  0.00    +0.013 A 
ATOM     19  C   UNL     1       4.661   0.146  -0.095  0.00  0.00    +0.001 A 
ATOM     20  C   UNL     1       4.676  -0.080  -1.473  0.00  0.00    +0.003 A 
ATOM     21  C   UNL     1       3.474  -0.231  -2.168  0.00  0.00    +0.039 A 
ATOM     22  C   UNL     1       2.253  -0.151  -1.491  0.00  0.00    +0.133 A 
ATOM     23  F   UNL     1       1.103  -0.344  -2.187  0.00  0.00    -0.205 F 
ENDBRANCH   8  17
TORSDOF 1
