REMARK  Name = 
REMARK  10 active torsions:
REMARK  status: ('A' for Active; 'I' for Inactive)
REMARK    1  A    between atoms: C_1  and  O_2
REMARK    2  A    between atoms: O_2  and  C_3
REMARK    3  A    between atoms: C_5  and  C_6
REMARK    4  A    between atoms: C_6  and  O_7
REMARK    5  A    between atoms: C_6  and  C_8
REMARK    6  A    between atoms: C_8  and  N_9
REMARK    7  A    between atoms: C_10  and  C_12
REMARK    8  A    between atoms: C_12  and  N_13
REMARK    9  A    between atoms: C_14  and  O_15
REMARK   10  A    between atoms: O_15  and  C_16
REMARK                            x       y       z     vdW  Elec       q    Type
REMARK                         _______ _______ _______ _____ _____    ______ ____
ROOT
ATOM      1  C   UNL     1       0.355  -1.620   1.250  0.00  0.00    +0.165 C 
ENDROOT
BRANCH   1   4
ATOM      2  C   UNL     1      -2.037   1.354   1.044  0.00  0.00    +0.121 A 
ATOM      3  C   UNL     1      -1.027   0.481   1.456  0.00  0.00    +0.055 A 
ATOM      4  C   UNL     1      -0.769  -0.717   0.762  0.00  0.00    +0.027 A 
ATOM      5  C   UNL     1      -1.548  -1.037  -0.375  0.00  0.00    +0.126 A 
ATOM      6  C   UNL     1      -2.565  -0.153  -0.784  0.00  0.00    +0.049 A 
ATOM      7  C   UNL     1      -2.807   1.029  -0.083  0.00  0.00    +0.049 A 
BRANCH   2   9
ATOM      8  C   UNL     1      -3.228   3.510   1.476  0.00  0.00    +0.277 C 
ATOM      9  O   UNL     1      -2.240   2.531   1.780  0.00  0.00    -0.495 OA
ENDBRANCH   2   9
BRANCH   5  10
ATOM     10  O   UNL     1      -1.292  -2.227  -1.075  0.00  0.00    -0.495 OA
ATOM     11  C   UNL     1      -1.996  -2.655  -2.237  0.00  0.00    +0.277 C 
ENDBRANCH   5  10
ENDBRANCH   1   4
BRANCH   1  12
ATOM     12  O   UNL     1      -0.137  -2.904   1.550  0.00  0.00    -0.386 OA
ATOM     13  H   UNL     1      -0.131  -3.451   0.723  0.00  0.00    +0.210 HD
ENDBRANCH   1  12
BRANCH   1  14
ATOM     14  C   UNL     1       1.543  -1.669   0.262  0.00  0.00    +0.140 C 
BRANCH  14  15
ATOM     15  N   UNL     1       2.165  -0.353   0.105  0.00  0.00    -0.311 N 
ATOM     16  C   UNL     1       3.265  -0.148  -0.790  0.00  0.00    +0.227 C 
ATOM     17  O   UNL     1       3.744  -1.115  -1.443  0.00  0.00    -0.274 OA
ATOM     18  H   UNL     1       1.812   0.464   0.653  0.00  0.00    +0.149 HD
BRANCH  16  19
ATOM     19  C   UNL     1       3.880   1.210  -0.924  0.00  0.00    +0.174 C 
BRANCH  19  20
ATOM     20  N   UNL     1       4.732   1.484   0.227  0.00  0.00    -0.322 NA
ATOM     21  H   UNL     1       5.084   2.465   0.136  0.00  0.00    +0.119 HD
ATOM     22  H   UNL     1       5.571   0.862   0.169  0.00  0.00    +0.119 HD
ENDBRANCH  19  20
ENDBRANCH  16  19
ENDBRANCH  14  15
ENDBRANCH   1  14
TORSDOF 8
