REMARK  Name = 
REMARK  8 active torsions:
REMARK  status: ('A' for Active; 'I' for Inactive)
REMARK    1  A    between atoms: C_4  and  O_5
REMARK    2  A    between atoms: C_4  and  C_6
REMARK    3  A    between atoms: C_7  and  C_8
REMARK    4  A    between atoms: C_9  and  C_10
REMARK    5  A    between atoms: C_12  and  C_13
REMARK    6  A    between atoms: C_16  and  N_19
REMARK    7  A    between atoms: N_19  and  C_20
REMARK    8  A    between atoms: N_19  and  C_21
REMARK                            x       y       z     vdW  Elec       q    Type
REMARK                         _______ _______ _______ _____ _____    ______ ____
ROOT
ATOM      1  C   UNL     1      -2.451   0.742  -0.936  0.00  0.00    +0.006 C 
ATOM      2  C   UNL     1      -3.747   1.074  -1.679  0.00  0.00    +0.008 C 
ATOM      3  C   UNL     1      -3.787   2.614  -1.722  0.00  0.00    +0.049 C 
ATOM      4  C   UNL     1      -2.396   3.110  -1.211  0.00  0.00    +0.132 C 
ATOM      5  C   UNL     1      -1.461   1.849  -1.345  0.00  0.00    +0.012 C 
ATOM      6  C   UNL     1      -0.980   1.718  -2.832  0.00  0.00    +0.015 C 
ATOM      7  C   UNL     1      -0.182   1.812  -0.432  0.00  0.00    +0.023 C 
ATOM      8  C   UNL     1       0.152   0.452   0.299  0.00  0.00    +0.046 C 
ATOM      9  C   UNL     1      -0.810  -0.736   0.110  0.00  0.00    -0.055 C 
ATOM     10  C   UNL     1      -0.891  -1.713   1.063  0.00  0.00    -0.044 C 
ATOM     11  C   UNL     1       0.237  -1.938   2.078  0.00  0.00    +0.043 C 
ATOM     12  C   UNL     1      -0.119  -2.926   3.196  0.00  0.00    +0.083 C 
ATOM     13  C   UNL     1      -0.907  -4.074   2.664  0.00  0.00    +0.157 C 
ATOM     14  O   UNL     1      -0.657  -5.256   3.030  0.00  0.00    -0.293 OA
ATOM     15  C   UNL     1      -2.020  -3.795   1.753  0.00  0.00    +0.050 C 
ATOM     16  C   UNL     1      -2.052  -2.652   1.059  0.00  0.00    -0.041 C 
ATOM     17  C   UNL     1      -3.276  -2.267   0.286  0.00  0.00    +0.036 C 
ATOM     18  C   UNL     1      -2.838  -1.821  -1.092  0.00  0.00    +0.013 C 
ATOM     19  C   UNL     1      -1.822  -0.656  -1.037  0.00  0.00    +0.020 C 
ENDROOT
BRANCH   8  20
ATOM     20  C   UNL     1       1.607   0.064   0.090  0.00  0.00    -0.040 A 
ATOM     21  C   UNL     1       2.560   0.420   1.061  0.00  0.00    +0.006 A 
ATOM     22  C   UNL     1       3.901   0.068   0.903  0.00  0.00    +0.023 A 
ATOM     23  C   UNL     1       4.329  -0.660  -0.230  0.00  0.00    +0.029 A 
ATOM     24  C   UNL     1       3.363  -1.008  -1.205  0.00  0.00    +0.023 A 
ATOM     25  C   UNL     1       2.021  -0.645  -1.047  0.00  0.00    +0.006 A 
BRANCH  23  26
ATOM     26  N   UNL     1       5.726  -1.050  -0.374  0.00  0.00    -0.336 N 
ATOM     27  C   UNL     1       6.633  -1.042   0.784  0.00  0.00    +0.129 C 
ATOM     28  C   UNL     1       6.256  -1.440  -1.690  0.00  0.00    +0.129 C 
ENDBRANCH  23  26
ENDBRANCH   8  20
BRANCH   4  29
ATOM     29  C   UNL     1      -2.538   3.535   0.201  0.00  0.00    -0.067 C 
ATOM     30  C   UNL     1      -2.621   3.868   1.361  0.00  0.00    -0.103 C 
ATOM     31  C   UNL     1      -2.688   4.246   2.774  0.00  0.00    +0.106 C 
ENDBRANCH   4  29
BRANCH   4  32
ATOM     32  O   UNL     1      -1.923   4.227  -1.938  0.00  0.00    -0.376 OA
ATOM     33  H   UNL     1      -2.149   4.119  -2.897  0.00  0.00    +0.211 HD
ENDBRANCH   4  32
TORSDOF 4
