REMARK  Name = 
REMARK  9 active torsions:
REMARK  status: ('A' for Active; 'I' for Inactive)
REMARK    1  A    between atoms: C_1  and  C_2
REMARK    2  A    between atoms: C_2  and  C_3
REMARK    3  A    between atoms: C_3  and  C_4
REMARK    4  A    between atoms: C_4  and  N_5
REMARK    5  A    between atoms: C_7  and  O_8
REMARK    6  A    between atoms: C_9  and  O_10
REMARK    7  A    between atoms: C_11  and  O_12
REMARK    8  A    between atoms: C_13  and  C_14
REMARK    9  A    between atoms: C_14  and  O_15
REMARK                            x       y       z     vdW  Elec       q    Type
REMARK                         _______ _______ _______ _____ _____    ______ ____
ROOT
ATOM      1  N   UNL     1      -0.194   0.021   0.232  0.00  0.00    -0.292 NA
ATOM      2  C   UNL     1      -0.548   1.365   0.734  0.00  0.00    +0.118 C 
ATOM      3  C   UNL     1      -1.768   1.927  -0.014  0.00  0.00    +0.159 C 
ATOM      4  C   UNL     1      -2.809   0.841  -0.397  0.00  0.00    +0.174 C 
ATOM      5  C   UNL     1      -2.698  -0.435   0.467  0.00  0.00    +0.165 C 
ATOM      6  C   UNL     1      -1.232  -0.993   0.579  0.00  0.00    +0.113 C 
ENDROOT
BRANCH   3   7
ATOM      7  O   UNL     1      -2.361   2.966   0.725  0.00  0.00    -0.388 OA
ATOM      8  H   UNL     1      -2.746   2.570   1.549  0.00  0.00    +0.210 HD
ENDBRANCH   3   7
BRANCH   4   9
ATOM      9  O   UNL     1      -2.651   0.488  -1.748  0.00  0.00    -0.387 OA
ATOM     10  H   UNL     1      -3.053   1.218  -2.288  0.00  0.00    +0.210 HD
ENDBRANCH   4   9
BRANCH   5  11
ATOM     11  O   UNL     1      -3.276  -0.234   1.735  0.00  0.00    -0.388 OA
ATOM     12  H   UNL     1      -2.667   0.329   2.274  0.00  0.00    +0.210 HD
ENDBRANCH   5  11
BRANCH   1  13
ATOM     13  C   UNL     1       1.153  -0.358   0.730  0.00  0.00    +0.085 C 
BRANCH  13  14
ATOM     14  C   UNL     1       2.205  -0.033  -0.335  0.00  0.00    +0.015 C 
BRANCH  14  16
ATOM     15  C   UNL     1       4.658  -0.090  -0.923  0.00  0.00    +0.004 C 
ATOM     16  C   UNL     1       3.612  -0.413   0.140  0.00  0.00    -0.002 C 
ENDBRANCH  14  16
ENDBRANCH  13  14
ENDBRANCH   1  13
BRANCH   6  17
ATOM     17  C   UNL     1      -1.077  -2.248  -0.319  0.00  0.00    +0.177 C 
BRANCH  17  18
ATOM     18  O   UNL     1      -1.211  -1.924  -1.677  0.00  0.00    -0.393 OA
ATOM     19  H   UNL     1      -0.339  -1.552  -1.969  0.00  0.00    +0.209 HD
ENDBRANCH  17  18
ENDBRANCH   6  17
TORSDOF 8
