REMARK  Name = 
REMARK  8 active torsions:
REMARK  status: ('A' for Active; 'I' for Inactive)
REMARK    1  A    between atoms: O_1  and  C_2
REMARK    2  A    between atoms: C_2  and  C_3
REMARK    3  A    between atoms: C_3  and  N_4
REMARK    4  A    between atoms: C_6  and  O_7
REMARK    5  A    between atoms: C_8  and  O_9
REMARK    6  A    between atoms: C_10  and  O_11
REMARK    7  A    between atoms: C_12  and  C_13
REMARK    8  A    between atoms: C_13  and  O_14
REMARK                            x       y       z     vdW  Elec       q    Type
REMARK                         _______ _______ _______ _____ _____    ______ ____
ROOT
ATOM      1  N   UNL     1       0.693  -0.071  -0.197  0.00  0.00    -0.290 NA
ATOM      2  C   UNL     1       0.049  -1.034  -1.119  0.00  0.00    +0.119 C 
ATOM      3  C   UNL     1      -1.144  -1.720  -0.456  0.00  0.00    +0.159 C 
ATOM      4  C   UNL     1      -2.185  -0.660  -0.078  0.00  0.00    +0.174 C 
ATOM      5  C   UNL     1      -1.546   0.397   0.835  0.00  0.00    +0.165 C 
ATOM      6  C   UNL     1      -0.260   1.006   0.208  0.00  0.00    +0.113 C 
ENDROOT
BRANCH   3   7
ATOM      7  O   UNL     1      -1.698  -2.642  -1.358  0.00  0.00    -0.388 OA
ATOM      8  H   UNL     1      -2.170  -3.328  -0.818  0.00  0.00    +0.210 HD
ENDBRANCH   3   7
BRANCH   4   9
ATOM      9  O   UNL     1      -3.257  -1.266   0.600  0.00  0.00    -0.387 OA
ATOM     10  H   UNL     1      -3.885  -1.603  -0.091  0.00  0.00    +0.210 HD
ENDBRANCH   4   9
BRANCH   5  11
ATOM     11  O   UNL     1      -2.479   1.423   1.069  0.00  0.00    -0.388 OA
ATOM     12  H   UNL     1      -3.072   1.115   1.804  0.00  0.00    +0.210 HD
ENDBRANCH   5  11
BRANCH   1  13
ATOM     13  C   UNL     1       1.925   0.457  -0.841  0.00  0.00    +0.112 C 
BRANCH  13  14
ATOM     14  C   UNL     1       3.129  -0.419  -0.490  0.00  0.00    +0.171 C 
BRANCH  14  15
ATOM     15  O   UNL     1       3.305  -0.451   0.899  0.00  0.00    -0.394 OA
ATOM     16  H   UNL     1       4.096  -1.027   1.063  0.00  0.00    +0.209 HD
ENDBRANCH  14  15
ENDBRANCH  13  14
ENDBRANCH   1  13
BRANCH   6  17
ATOM     17  C   UNL     1       0.383   1.968   1.254  0.00  0.00    +0.177 C 
BRANCH  17  18
ATOM     18  O   UNL     1       0.835   3.147   0.643  0.00  0.00    -0.393 OA
ATOM     19  H   UNL     1       0.028   3.691   0.445  0.00  0.00    +0.209 HD
ENDBRANCH  17  18
ENDBRANCH   6  17
TORSDOF 8
