REMARK  Name = 
REMARK  8 active torsions:
REMARK  status: ('A' for Active; 'I' for Inactive)
REMARK    1  A    between atoms: C_1  and  C_2
REMARK    2  A    between atoms: C_2  and  N_3
REMARK    3  A    between atoms: N_3  and  C_4
REMARK    4  A    between atoms: C_4  and  C_5
REMARK    5  A    between atoms: C_6  and  C_8
REMARK    6  A    between atoms: C_8  and  C_13
REMARK    7  A    between atoms: C_10  and  C_11
REMARK    8  A    between atoms: C_11  and  N_12
REMARK                            x       y       z     vdW  Elec       q    Type
REMARK                         _______ _______ _______ _____ _____    ______ ____
ROOT
ATOM      1  C   UNL     1      -0.761   0.329  -0.117  0.00  0.00    +0.076 C 
ATOM      2  C   UNL     1      -1.135   1.166  -1.343  0.00  0.00    +0.027 C 
ATOM      3  C   UNL     1      -1.969   1.283  -0.073  0.00  0.00    +0.023 C 
ENDROOT
BRANCH   1   4
ATOM      4  C   UNL     1      -1.112  -1.134  -0.165  0.00  0.00    -0.032 A 
ATOM      5  C   UNL     1      -1.828  -1.717   0.894  0.00  0.00    +0.004 A 
ATOM      6  C   UNL     1      -2.105  -3.087   0.886  0.00  0.00    +0.000 A 
ATOM      7  C   UNL     1      -1.658  -3.886  -0.170  0.00  0.00    +0.000 A 
ATOM      8  C   UNL     1      -0.929  -3.317  -1.217  0.00  0.00    +0.000 A 
ATOM      9  C   UNL     1      -0.650  -1.946  -1.213  0.00  0.00    +0.004 A 
ENDBRANCH   1   4
BRANCH   1  11
ATOM     10  N   UNL     1       1.796   0.364   0.143  0.00  0.00    -0.301 N 
ATOM     11  C   UNL     1       0.487   0.694   0.651  0.00  0.00    +0.226 C 
ATOM     12  O   UNL     1       0.373   1.119   1.832  0.00  0.00    -0.275 OA
BRANCH  10  14
ATOM     13  C   UNL     1       2.565   2.147  -1.361  0.00  0.00    +0.024 C 
ATOM     14  C   UNL     1       2.179   0.677  -1.239  0.00  0.00    +0.104 C 
ENDBRANCH  10  14
BRANCH  10  15
ATOM     15  C   UNL     1       2.785  -0.232   1.052  0.00  0.00    +0.104 C 
ATOM     16  C   UNL     1       2.403  -1.672   1.379  0.00  0.00    +0.024 C 
ENDBRANCH  10  15
ENDBRANCH   1  11
BRANCH   3  17
ATOM     17  C   UNL     1      -1.836   2.644   0.637  0.00  0.00    +0.082 C 
BRANCH  17  18
ATOM     18  N   UNL     1      -2.825   3.592   0.130  0.00  0.00    -0.330 NA
ATOM     19  H   UNL     1      -2.680   3.707  -0.900  0.00  0.00    +0.118 HD
ATOM     20  H   UNL     1      -3.780   3.190   0.273  0.00  0.00    +0.118 HD
ENDBRANCH  17  18
ENDBRANCH   3  17
TORSDOF 6
