REMARK  Name = 
REMARK  3 active torsions:
REMARK  status: ('A' for Active; 'I' for Inactive)
REMARK    1  A    between atoms: C_1  and  C_2
REMARK    2  A    between atoms: C_3  and  C_11
REMARK    3  A    between atoms: C_5  and  C_6
REMARK                            x       y       z     vdW  Elec       q    Type
REMARK                         _______ _______ _______ _____ _____    ______ ____
ROOT
ATOM      1  C   UNL     1       0.398  -2.372  -0.047  0.00  0.00    +0.064 C 
ATOM      2  C   UNL     1       1.063  -1.020  -0.053  0.00  0.00    +0.024 A 
ATOM      3  C   UNL     1       0.308   0.177  -0.024  0.00  0.00    +0.003 A 
ATOM      4  C   UNL     1       0.987   1.403  -0.072  0.00  0.00    +0.034 A 
ATOM      5  C   UNL     1       2.381   1.438  -0.114  0.00  0.00    +0.116 A 
ATOM      6  C   UNL     1       3.095   0.232  -0.108  0.00  0.00    +0.266 A 
ATOM      7  O   UNL     1       4.356   0.237  -0.136  0.00  0.00    -0.267 OA
ATOM      8  N   UNL     1       2.428  -0.955  -0.076  0.00  0.00    -0.325 N 
ATOM      9  H   UNL     1       2.985  -1.840  -0.075  0.00  0.00    +0.169 HD
ENDROOT
BRANCH   3  10
ATOM     10  C   UNL     1      -1.171   0.181   0.048  0.00  0.00    -0.013 A 
ATOM     11  C   UNL     1      -1.836  -0.408   1.133  0.00  0.00    +0.028 A 
ATOM     12  C   UNL     1      -3.231  -0.379   1.183  0.00  0.00    +0.111 A 
ATOM     13  N   UNL     1      -3.937   0.225   0.191  0.00  0.00    -0.263 NA
ATOM     14  C   UNL     1      -3.318   0.813  -0.867  0.00  0.00    +0.111 A 
ATOM     15  C   UNL     1      -1.924   0.807  -0.956  0.00  0.00    +0.028 A 
ENDBRANCH   3  10
BRANCH   5  16
ATOM     16  C   UNL     1       3.064   2.708  -0.152  0.00  0.00    +0.105 C 
ATOM     17  N   UNL     1       3.611   3.728  -0.183  0.00  0.00    -0.191 NA
ENDBRANCH   5  16
TORSDOF 2
