REMARK  Name = 
REMARK  6 active torsions:
REMARK  status: ('A' for Active; 'I' for Inactive)
REMARK    1  A    between atoms: N_1  and  CA_2
REMARK    2  A    between atoms: CA_2  and  C_3
REMARK    3  A    between atoms: CA_2  and  C_12
REMARK    4  A    between atoms: C_3  and  N_4
REMARK    5  A    between atoms: C_9  and  O_10
REMARK    6  A    between atoms: C_12  and  O_13
REMARK                            x       y       z     vdW  Elec       q    Type
REMARK                         _______ _______ _______ _____ _____    ______ ____
ROOT
ATOM      1  C   UNL     1      -0.849   0.050   0.941  0.00  0.00    +0.151 C 
ENDROOT
BRANCH   1   2
ATOM      2  N   UNL     1       0.541   0.266   0.518  0.00  0.00    -0.348 N 
ATOM      3  C   UNL     1       0.971   1.525   0.203  0.00  0.00    +0.089 A 
ATOM      4  C   UNL     1       2.283   1.742  -0.222  0.00  0.00    +0.072 A 
ATOM      5  C   UNL     1       3.159   0.661  -0.332  0.00  0.00    +0.223 A 
ATOM      6  O   UNL     1       4.343   0.853  -0.715  0.00  0.00    -0.284 OA
ATOM      7  C   UNL     1       2.709  -0.629  -0.016  0.00  0.00    +0.180 A 
ATOM      8  C   UNL     1       1.387  -0.804   0.406  0.00  0.00    +0.135 A 
BRANCH   7   9
ATOM      9  O   UNL     1       3.548  -1.738  -0.116  0.00  0.00    -0.502 OA
ATOM     10  H   UNL     1       4.512  -1.658  -0.418  0.00  0.00    +0.292 HD
ENDBRANCH   7   9
ENDBRANCH   1   2
BRANCH   1  11
ATOM     11  CA  UNL     1      -1.726  -0.366  -0.252  0.00  0.00    +0.180 C 
BRANCH  11  12
ATOM     12  N   UNL     1      -1.751   0.691  -1.266  0.00  0.00    -0.317 NA
ATOM     13  H1  UNL     1      -2.320   0.362  -2.080  0.00  0.00    +0.119 HD
ATOM     14  H2  UNL     1      -2.223   1.540  -0.876  0.00  0.00    +0.119 HD
ENDBRANCH  11  12
BRANCH  11  15
ATOM     15  C   UNL     1      -3.120  -0.702   0.206  0.00  0.00    +0.323 C 
ATOM     16  OXT UNL     1      -3.847   0.180   0.738  0.00  0.00    -0.249 OA
BRANCH  15  17
ATOM     17  O   UNL     1      -3.606  -1.996   0.047  0.00  0.00    -0.479 OA
ATOM     18  H   UNL     1      -4.541  -2.241   0.352  0.00  0.00    +0.295 HD
ENDBRANCH  15  17
ENDBRANCH  11  15
ENDBRANCH   1  11
TORSDOF 6
