REMARK  Name = 
REMARK  5 active torsions:
REMARK  status: ('A' for Active; 'I' for Inactive)
REMARK    1  A    between atoms: C_1  and  C_2
REMARK    2  A    between atoms: C_4  and  C_17
REMARK    3  A    between atoms: N_8  and  C_9
REMARK    4  A    between atoms: C_9  and  C_10
REMARK    5  A    between atoms: C_10  and  N_11
REMARK                            x       y       z     vdW  Elec       q    Type
REMARK                         _______ _______ _______ _____ _____    ______ ____
ROOT
ATOM      1  C   UNL     1       0.569  -1.707  -2.281  0.00  0.00    +0.047 C 
ATOM      2  C   UNL     1       1.249  -0.752  -1.337  0.00  0.00    -0.007 A 
ATOM      3  C   UNL     1       2.584  -0.969  -0.974  0.00  0.00    +0.037 A 
ATOM      4  C   UNL     1       3.221  -0.087  -0.089  0.00  0.00    +0.094 A 
ATOM      5  N   UNL     1       2.520   0.977   0.384  0.00  0.00    -0.147 NA
ATOM      6  N   UNL     1       1.251   1.195   0.042  0.00  0.00    -0.134 NA
ATOM      7  C   UNL     1       0.578   0.368  -0.804  0.00  0.00    +0.144 A 
ATOM      8  N   UNL     1      -0.791   0.657  -1.137  0.00  0.00    -0.326 N 
ATOM      9  H   UNL     1      -1.286   0.076  -1.849  0.00  0.00    +0.148 HD
ENDROOT
BRANCH   4  10
ATOM     10  C   UNL     1       4.635  -0.273   0.325  0.00  0.00    +0.002 A 
ATOM     11  C   UNL     1       5.217  -1.555   0.401  0.00  0.00    +0.010 A 
ATOM     12  C   UNL     1       6.548  -1.706   0.802  0.00  0.00    +0.001 A 
ATOM     13  C   UNL     1       7.312  -0.587   1.137  0.00  0.00    +0.000 A 
ATOM     14  C   UNL     1       6.745   0.688   1.077  0.00  0.00    +0.001 A 
ATOM     15  C   UNL     1       5.414   0.846   0.678  0.00  0.00    +0.010 A 
ENDBRANCH   4  10
BRANCH   8  16
ATOM     16  C   UNL     1      -1.508   1.768  -0.505  0.00  0.00    +0.118 C 
BRANCH  16  17
ATOM     17  C   UNL     1      -2.990   1.808  -0.920  0.00  0.00    +0.103 C 
BRANCH  17  18
ATOM     18  N   UNL     1      -3.837   1.002  -0.012  0.00  0.00    -0.297 NA
ATOM     19  C   UNL     1      -5.255   1.373  -0.191  0.00  0.00    +0.112 C 
ATOM     20  C   UNL     1      -6.143   0.501   0.702  0.00  0.00    +0.175 C 
ATOM     21  O   UNL     1      -5.971  -0.868   0.392  0.00  0.00    -0.377 OA
ATOM     22  C   UNL     1      -4.630  -1.243   0.637  0.00  0.00    +0.175 C 
ATOM     23  C   UNL     1      -3.668  -0.445  -0.253  0.00  0.00    +0.112 C 
ENDBRANCH  17  18
ENDBRANCH  16  17
ENDBRANCH   8  16
TORSDOF 4
