REMARK  Name = 
REMARK  1 active torsions:
REMARK  status: ('A' for Active; 'I' for Inactive)
REMARK    1  A    between atoms: N_1  and  C_2
REMARK                            x       y       z     vdW  Elec       q    Type
REMARK                         _______ _______ _______ _____ _____    ______ ____
ROOT
ATOM      1  C   UNL     1      -2.739  -0.869  -0.845  0.00  0.00    +0.144 A 
ATOM      2  C   UNL     1      -1.346  -0.941  -0.751  0.00  0.00    +0.088 A 
ATOM      3  C   UNL     1      -0.655   0.068  -0.067  0.00  0.00    +0.128 A 
ATOM      4  N   UNL     1      -1.366   1.085   0.491  0.00  0.00    -0.199 NA
ATOM      5  C   UNL     1      -2.719   1.151   0.398  0.00  0.00    +0.235 A 
ATOM      6  N   UNL     1      -3.407   2.247   1.006  0.00  0.00    -0.326 N 
ATOM      7  N   UNL     1      -3.405   0.177  -0.270  0.00  0.00    -0.086 N 
ATOM      8  O   UNL     1      -4.778   0.248  -0.362  0.00  0.00    -0.159 OA
ATOM      9  N   UNL     1       0.784   0.044   0.061  0.00  0.00    -0.315 N 
ATOM     10  C   UNL     1       1.436   0.838   1.115  0.00  0.00    +0.106 C 
ATOM     11  C   UNL     1       2.691   0.119   1.618  0.00  0.00    +0.019 C 
ATOM     12  C   UNL     1       3.681  -0.221   0.485  0.00  0.00    +0.003 C 
ATOM     13  C   UNL     1       3.057  -0.167  -0.918  0.00  0.00    +0.019 C 
ATOM     14  C   UNL     1       1.611  -0.676  -0.923  0.00  0.00    +0.106 C 
ATOM     15  H   UNL     1      -4.446   2.334   0.958  0.00  0.00    +0.145 HD
ATOM     16  H   UNL     1      -2.870   2.984   1.514  0.00  0.00    +0.145 HD
ENDROOT
BRANCH   1  17
ATOM     17  N   UNL     1      -3.455  -1.896  -1.541  0.00  0.00    -0.342 N 
ATOM     18  H   UNL     1      -2.946  -2.696  -1.980  0.00  0.00    +0.144 HD
ATOM     19  H   UNL     1      -4.495  -1.871  -1.627  0.00  0.00    +0.144 HD
ENDBRANCH   1  17
TORSDOF 1
