REMARK  Name = 
REMARK  11 active torsions:
REMARK  status: ('A' for Active; 'I' for Inactive)
REMARK    1  A    between atoms: C_5  and  O_6
REMARK    2  A    between atoms: C_9  and  N_10
REMARK    3  A    between atoms: N_10  and  C_11
REMARK    4  A    between atoms: N_10  and  C_12
REMARK    5  A    between atoms: C_16  and  O_17
REMARK    6  A    between atoms: C_18  and  O_19
REMARK    7  A    between atoms: C_22  and  C_23
REMARK    8  A    between atoms: C_26  and  O_27
REMARK    9  A    between atoms: C_28  and  N_29
REMARK   10  A    between atoms: N_29  and  C_30
REMARK   11  A    between atoms: N_29  and  C_31
REMARK                            x       y       z     vdW  Elec       q    Type
REMARK                         _______ _______ _______ _____ _____    ______ ____
ROOT
ATOM      1  C   UNL     1       0.862   0.366  -1.008  0.00  0.00    +0.031 C 
ATOM      2  C   UNL     1       1.667  -0.415   0.044  0.00  0.00    +0.046 C 
ATOM      3  C   UNL     1       2.597   0.471   0.852  0.00  0.00    -0.011 A 
ATOM      4  C   UNL     1       2.171   1.762   1.251  0.00  0.00    +0.068 A 
ATOM      5  C   UNL     1       2.942   2.478   2.205  0.00  0.00    +0.128 A 
ATOM      6  C   UNL     1       4.186   1.981   2.608  0.00  0.00    +0.048 A 
ATOM      7  C   UNL     1       4.647   0.757   2.135  0.00  0.00    +0.027 A 
ATOM      8  C   UNL     1       3.853  -0.017   1.284  0.00  0.00    +0.033 A 
ATOM      9  C   UNL     1       1.001   2.375   0.559  0.00  0.00    +0.197 C 
ATOM     10  O   UNL     1       0.819   3.620   0.617  0.00  0.00    -0.287 OA
ATOM     11  C   UNL     1       0.169   1.558  -0.361  0.00  0.00    +0.044 C 
ATOM     12  C   UNL     1      -1.081   1.932  -0.723  0.00  0.00    +0.141 C 
ATOM     13  C   UNL     1      -1.809   1.193  -1.834  0.00  0.00    +0.190 C 
ATOM     14  C   UNL     1      -3.296   1.449  -1.763  0.00  0.00    +0.211 C 
ATOM     15  O   UNL     1      -3.813   2.336  -2.502  0.00  0.00    -0.288 OA
ATOM     16  C   UNL     1      -4.134   0.712  -0.790  0.00  0.00    +0.121 C 
ATOM     17  C   UNL     1      -3.613  -0.324  -0.088  0.00  0.00    +0.127 C 
ATOM     18  C   UNL     1      -2.210  -0.862  -0.332  0.00  0.00    +0.129 C 
ATOM     19  C   UNL     1      -1.578  -0.323  -1.675  0.00  0.00    +0.061 C 
ATOM     20  C   UNL     1      -0.065  -0.603  -1.811  0.00  0.00    +0.018 C 
ENDROOT
BRANCH  16  21
ATOM     21  C   UNL     1      -5.550   1.119  -0.630  0.00  0.00    +0.248 C 
ATOM     22  N   UNL     1      -5.892   2.494  -0.459  0.00  0.00    -0.325 N 
ATOM     23  O   UNL     1      -6.468   0.253  -0.683  0.00  0.00    -0.270 OA
ATOM     24  H   UNL     1      -6.894   2.789  -0.421  0.00  0.00    +0.145 HD
ATOM     25  H   UNL     1      -5.151   3.219  -0.334  0.00  0.00    +0.145 HD
ENDBRANCH  16  21
BRANCH   8  26
ATOM     26  N   UNL     1       4.363  -1.273   0.811  0.00  0.00    -0.336 N 
ATOM     27  C   UNL     1       4.080  -2.483   1.581  0.00  0.00    +0.129 C 
ATOM     28  C   UNL     1       5.497  -1.268  -0.113  0.00  0.00    +0.129 C 
ENDBRANCH   8  26
BRANCH  18  29
ATOM     29  N   UNL     1      -2.286  -2.346  -0.213  0.00  0.00    -0.299 NA
ATOM     30  C   UNL     1      -1.218  -2.983   0.574  0.00  0.00    +0.105 C 
ATOM     31  C   UNL     1      -2.618  -3.085  -1.439  0.00  0.00    +0.105 C 
ENDBRANCH  18  29
BRANCH   5  32
ATOM     32  O   UNL     1       2.500   3.662   2.796  0.00  0.00    -0.506 OA
ATOM     33  H   UNL     1       1.521   3.925   2.839  0.00  0.00    +0.292 HD
ENDBRANCH   5  32
BRANCH  12  34
ATOM     34  O   UNL     1      -1.745   2.989  -0.091  0.00  0.00    -0.507 OA
ATOM     35  H   UNL     1      -1.536   3.282   0.852  0.00  0.00    +0.292 HD
ENDBRANCH  12  34
BRANCH  13  36
ATOM     36  O   UNL     1      -1.312   1.603  -3.091  0.00  0.00    -0.373 OA
ATOM     37  H   UNL     1      -1.335   2.596  -3.126  0.00  0.00    +0.211 HD
ENDBRANCH  13  36
BRANCH  17  38
ATOM     38  O   UNL     1      -4.336  -0.930   0.950  0.00  0.00    -0.509 OA
ATOM     39  H   UNL     1      -5.224  -0.586   1.294  0.00  0.00    +0.292 HD
ENDBRANCH  17  38
TORSDOF 7
