REMARK  Name = 
REMARK  10 active torsions:
REMARK  status: ('A' for Active; 'I' for Inactive)
REMARK    1  A    between atoms: C_4  and  C_5
REMARK    2  A    between atoms: C_5  and  C_6
REMARK    3  A    between atoms: N_8  and  C_9
REMARK    4  A    between atoms: C_12  and  C_13
REMARK    5  A    between atoms: C_13  and  C_14
REMARK    6  A    between atoms: C_14  and  N_15
REMARK    7  A    between atoms: N_15  and  C_16
REMARK    8  A    between atoms: C_16  and  C_17
REMARK    9  A    between atoms: C_17  and  O_18
REMARK   10  A    between atoms: C_17  and  C_19
REMARK                            x       y       z     vdW  Elec       q    Type
REMARK                         _______ _______ _______ _____ _____    ______ ____
ROOT
ATOM      1  C   UNL     1       2.299  -0.405  -0.699  0.00  0.00    +0.033 A 
ATOM      2  C   UNL     1       1.358  -0.469  -1.737  0.00  0.00    +0.023 A 
ATOM      3  C   UNL     1       0.286   0.426  -1.779  0.00  0.00    +0.005 A 
ATOM      4  C   UNL     1       0.147   1.412  -0.790  0.00  0.00    -0.046 A 
ATOM      5  C   UNL     1       1.098   1.491   0.239  0.00  0.00    +0.005 A 
ATOM      6  C   UNL     1       2.170   0.596   0.280  0.00  0.00    +0.023 A 
ENDROOT
BRANCH   1   9
ATOM      7  C   UNL     1       4.033  -1.821   0.498  0.00  0.00    +0.223 C 
ATOM      8  O   UNL     1       3.476  -1.688   1.621  0.00  0.00    -0.275 OA
ATOM      9  N   UNL     1       3.406  -1.322  -0.694  0.00  0.00    -0.285 N 
ATOM     10  H   UNL     1       3.738  -1.697  -1.612  0.00  0.00    +0.155 HD
BRANCH   7  11
ATOM     11  C   UNL     1       5.358  -2.513   0.412  0.00  0.00    +0.152 C 
BRANCH  11  15
ATOM     12  N   UNL     1       8.713   0.818   1.785  0.00  0.00    -0.338 N 
ATOM     13  C   UNL     1       7.946   0.024   0.883  0.00  0.00    +0.156 A 
ATOM     14  N   UNL     1       7.033  -0.883   1.288  0.00  0.00    -0.230 NA
ATOM     15  C   UNL     1       6.446  -1.502   0.228  0.00  0.00    +0.059 A 
ATOM     16  C   UNL     1       6.882  -1.071  -1.025  0.00  0.00    +0.072 A 
ATOM     17  S   UNL     1       8.056   0.112  -0.790  0.00  0.00    -0.061 S 
ATOM     18  H   UNL     1       9.402   1.512   1.421  0.00  0.00    +0.144 HD
ATOM     19  H   UNL     1       8.591   0.708   2.816  0.00  0.00    +0.144 HD
ENDBRANCH  11  15
ENDBRANCH   7  11
ENDBRANCH   1   9
BRANCH   4  20
ATOM     20  C   UNL     1      -1.021   2.365  -0.817  0.00  0.00    +0.050 C 
BRANCH  20  21
ATOM     21  C   UNL     1      -2.089   2.010   0.236  0.00  0.00    +0.085 C 
BRANCH  21  22
ATOM     22  N   UNL     1      -2.704   0.688   0.031  0.00  0.00    -0.313 NA
ATOM     23  H   UNL     1      -1.964  -0.048  -0.034  0.00  0.00    +0.122 HD
BRANCH  22  24
ATOM     24  C   UNL     1      -3.551   0.638  -1.169  0.00  0.00    +0.117 C 
BRANCH  24  25
ATOM     25  C   UNL     1      -4.451  -0.608  -1.133  0.00  0.00    +0.158 C 
BRANCH  25  26
ATOM     26  C   UNL     1      -5.369  -0.570   0.069  0.00  0.00    -0.018 A 
ATOM     27  C   UNL     1      -6.475   0.299   0.099  0.00  0.00    +0.006 A 
ATOM     28  C   UNL     1      -7.301   0.353   1.226  0.00  0.00    +0.000 A 
ATOM     29  C   UNL     1      -7.026  -0.452   2.335  0.00  0.00    +0.000 A 
ATOM     30  C   UNL     1      -5.925  -1.311   2.319  0.00  0.00    +0.000 A 
ATOM     31  C   UNL     1      -5.096  -1.368   1.194  0.00  0.00    +0.006 A 
ENDBRANCH  25  26
BRANCH  25  32
ATOM     32  O   UNL     1      -5.221  -0.678  -2.305  0.00  0.00    -0.386 OA
ATOM     33  H   UNL     1      -4.612  -0.965  -3.035  0.00  0.00    +0.210 HD
ENDBRANCH  25  32
ENDBRANCH  24  25
ENDBRANCH  22  24
ENDBRANCH  21  22
ENDBRANCH  20  21
ENDBRANCH   4  20
TORSDOF 10
