REMARK  Name = 
REMARK  1 active torsions:
REMARK  status: ('A' for Active; 'I' for Inactive)
REMARK    1  A    between atoms: C_1  and  N_2
REMARK                            x       y       z     vdW  Elec       q    Type
REMARK                         _______ _______ _______ _____ _____    ______ ____
ROOT
ATOM      1  C   UNL     1      -4.061  -1.864   0.248  0.00  0.00    +0.105 C 
ATOM      2  N   UNL     1      -2.971  -1.205  -0.488  0.00  0.00    -0.302 NA
ATOM      3  C   UNL     1      -3.149   0.269  -0.516  0.00  0.00    +0.103 C 
ATOM      4  C   UNL     1      -2.156   1.021   0.381  0.00  0.00    +0.122 C 
ATOM      5  N   UNL     1      -0.767   0.660   0.040  0.00  0.00    -0.305 N 
ATOM      6  C   UNL     1      -0.520  -0.720  -0.447  0.00  0.00    +0.119 C 
ATOM      7  C   UNL     1      -1.659  -1.649   0.031  0.00  0.00    +0.111 C 
ATOM      8  C   UNL     1       0.880  -1.233  -0.095  0.00  0.00    -0.022 A 
ATOM      9  C   UNL     1       1.100  -2.299   0.808  0.00  0.00    +0.006 A 
ATOM     10  C   UNL     1       2.391  -2.770   1.057  0.00  0.00    +0.000 A 
ATOM     11  C   UNL     1       3.485  -2.184   0.425  0.00  0.00    +0.000 A 
ATOM     12  C   UNL     1       3.295  -1.115  -0.448  0.00  0.00    +0.004 A 
ATOM     13  C   UNL     1       2.001  -0.636  -0.717  0.00  0.00    -0.038 A 
ATOM     14  C   UNL     1       1.829   0.619  -1.524  0.00  0.00    +0.074 C 
ATOM     15  C   UNL     1       1.446   1.726  -0.583  0.00  0.00    -0.003 A 
ATOM     16  C   UNL     1       0.247   1.695   0.182  0.00  0.00    +0.125 A 
ATOM     17  N   UNL     1       0.017   2.707   1.069  0.00  0.00    -0.240 NA
ATOM     18  C   UNL     1       0.879   3.738   1.257  0.00  0.00    +0.113 A 
ATOM     19  C   UNL     1       2.059   3.798   0.526  0.00  0.00    +0.020 A 
ATOM     20  C   UNL     1       2.344   2.790  -0.391  0.00  0.00    +0.009 A 
ENDROOT
TORSDOF 0
