REMARK  Name = 
REMARK  19 active torsions:
REMARK  status: ('A' for Active; 'I' for Inactive)
REMARK    1  A    between atoms: C_1  and  C_2
REMARK    2  A    between atoms: C_2  and  C_3
REMARK    3  A    between atoms: C_3  and  C_4
REMARK    4  A    between atoms: C_4  and  C_5
REMARK    5  A    between atoms: C_5  and  C_6
REMARK    6  A    between atoms: C_5  and  O_7
REMARK    7  A    between atoms: C_5  and  C_8
REMARK    8  A    between atoms: C_8  and  C_9
REMARK    9  A    between atoms: C_10  and  C_11
REMARK   10  A    between atoms: C_12  and  O_13
REMARK   11  A    between atoms: C_17  and  C_18
REMARK   12  A    between atoms: C_18  and  C_19
REMARK   13  A    between atoms: C_19  and  C_20
REMARK   14  A    between atoms: C_20  and  C_21
REMARK   15  A    between atoms: C_21  and  C_22
REMARK   16  A    between atoms: C_22  and  C_23
REMARK   17  A    between atoms: C_23  and  C_24
REMARK   18  A    between atoms: C_24  and  O_26
REMARK   19  A    between atoms: O_26  and  C_27
REMARK                            x       y       z     vdW  Elec       q    Type
REMARK                         _______ _______ _______ _____ _____    ______ ____
ROOT
ATOM      1  C   UNL     1      -0.068   0.688  -1.365  0.00  0.00    +0.050 C 
ATOM      2  C   UNL     1       0.075   1.619  -2.589  0.00  0.00    +0.129 C 
ATOM      3  C   UNL     1       1.341   2.442  -2.340  0.00  0.00    +0.106 C 
ATOM      4  C   UNL     1       1.528   2.375  -0.867  0.00  0.00    +0.140 C 
ATOM      5  O   UNL     1       2.324   3.082  -0.269  0.00  0.00    -0.297 OA
ATOM      6  C   UNL     1       0.586   1.441  -0.188  0.00  0.00    +0.065 C 
ENDROOT
BRANCH   1   8
ATOM      7  C   UNL     1      -2.473   1.139  -0.802  0.00  0.00    -0.028 C 
ATOM      8  C   UNL     1      -1.494   0.265  -1.087  0.00  0.00    -0.024 C 
BRANCH   7   9
ATOM      9  C   UNL     1      -3.878   0.685  -0.494  0.00  0.00    +0.061 C 
BRANCH   9  10
ATOM     10  C   UNL     1      -4.029   0.074   0.927  0.00  0.00    +0.067 C 
ATOM     11  C   UNL     1      -3.525   1.082   1.987  0.00  0.00    +0.041 C 
BRANCH  10  12
ATOM     12  O   UNL     1      -3.259  -1.104   1.003  0.00  0.00    -0.389 OA
ATOM     13  H   UNL     1      -3.366  -1.482   1.915  0.00  0.00    +0.210 HD
ENDBRANCH  10  12
BRANCH  10  14
ATOM     14  C   UNL     1      -5.525  -0.249   1.222  0.00  0.00    +0.035 C 
BRANCH  14  15
ATOM     15  C   UNL     1      -6.110  -1.368   0.336  0.00  0.00    +0.003 C 
BRANCH  15  17
ATOM     16  C   UNL     1      -7.668  -2.518   2.002  0.00  0.00    +0.004 C 
ATOM     17  C   UNL     1      -7.561  -1.712   0.707  0.00  0.00    -0.003 C 
ENDBRANCH  15  17
ENDBRANCH  14  15
ENDBRANCH  10  14
ENDBRANCH   9  10
ENDBRANCH   7   9
ENDBRANCH   1   8
BRANCH   2  18
ATOM     18  O   UNL     1       0.197   0.883  -3.778  0.00  0.00    -0.391 OA
ATOM     19  H   UNL     1      -0.705   0.521  -3.978  0.00  0.00    +0.210 HD
ENDBRANCH   2  18
BRANCH   6  20
ATOM     20  C   UNL     1       1.227   0.557   0.917  0.00  0.00    +0.012 C 
BRANCH  20  21
ATOM     21  C   UNL     1       2.088  -0.656   0.491  0.00  0.00    +0.001 C 
BRANCH  21  22
ATOM     22  C   UNL     1       3.285  -0.342  -0.422  0.00  0.00    +0.000 C 
BRANCH  22  23
ATOM     23  C   UNL     1       4.399   0.432   0.302  0.00  0.00    +0.001 C 
BRANCH  23  24
ATOM     24  C   UNL     1       5.481   0.951  -0.662  0.00  0.00    +0.011 C 
BRANCH  24  25
ATOM     25  C   UNL     1       6.281  -0.155  -1.368  0.00  0.00    +0.120 C 
BRANCH  25  26
ATOM     26  C   UNL     1       7.032  -1.010  -0.394  0.00  0.00    +0.307 C 
ATOM     27  O   UNL     1       6.646  -2.189  -0.167  0.00  0.00    -0.251 OA
BRANCH  26  28
ATOM     28  O   UNL     1       8.141  -0.481   0.272  0.00  0.00    -0.468 OA
ATOM     29  C   UNL     1       8.891  -1.228   1.222  0.00  0.00    +0.280 C 
ENDBRANCH  26  28
ENDBRANCH  25  26
ENDBRANCH  24  25
ENDBRANCH  23  24
ENDBRANCH  22  23
ENDBRANCH  21  22
ENDBRANCH  20  21
ENDBRANCH   6  20
TORSDOF 16
