REMARK  Name = 
REMARK  6 active torsions:
REMARK  status: ('A' for Active; 'I' for Inactive)
REMARK    1  A    between atoms: O_1  and  C_2
REMARK    2  A    between atoms: C_2  and  C_4
REMARK    3  A    between atoms: C_4  and  C_5
REMARK    4  A    between atoms: C_4  and  C_17
REMARK    5  A    between atoms: C_5  and  C_6
REMARK    6  A    between atoms: C_17  and  C_18
REMARK                            x       y       z     vdW  Elec       q    Type
REMARK                         _______ _______ _______ _____ _____    ______ ____
ROOT
ATOM      1  C   UNL     1       2.220  -0.962   0.811  0.00  0.00    +0.111 C 
ENDROOT
BRANCH   1   2
ATOM      2  C   UNL     1       3.034  -2.197   0.520  0.00  0.00    +0.309 C 
ATOM      3  O   UNL     1       4.151  -2.363   1.080  0.00  0.00    -0.251 OA
BRANCH   2   4
ATOM      4  O   UNL     1       2.563  -3.147  -0.381  0.00  0.00    -0.480 OA
ATOM      5  H   UNL     1       3.114  -3.967  -0.604  0.00  0.00    +0.295 HD
ENDBRANCH   2   4
ENDBRANCH   1   2
BRANCH   1   6
ATOM      6  C   UNL     1       0.843  -1.377   1.375  0.00  0.00    +0.111 C 
BRANCH   6   7
ATOM      7  C   UNL     1       0.038  -0.198   1.866  0.00  0.00    +0.216 C 
ATOM      8  O   UNL     1       0.583   0.629   2.649  0.00  0.00    -0.276 OA
ATOM      9  N   UNL     1      -1.343  -0.018   1.498  0.00  0.00    -0.301 N 
ATOM     10  C   UNL     1      -2.116   1.154   1.887  0.00  0.00    +0.111 C 
ATOM     11  C   UNL     1      -3.437   1.038   1.116  0.00  0.00    +0.011 C 
ATOM     12  C   UNL     1      -3.360   1.854  -0.196  0.00  0.00    +0.005 C 
ATOM     13  C   UNL     1      -4.466   1.464  -1.175  0.00  0.00    +0.000 C 
ATOM     14  C   UNL     1      -4.344  -0.016  -1.536  0.00  0.00    +0.000 C 
ATOM     15  C   UNL     1      -4.505  -0.888  -0.287  0.00  0.00    +0.005 C 
ATOM     16  C   UNL     1      -3.572  -0.479   0.874  0.00  0.00    +0.011 C 
ATOM     17  C   UNL     1      -2.138  -0.984   0.751  0.00  0.00    +0.111 C 
ENDBRANCH   6   7
ENDBRANCH   1   6
BRANCH   1  18
ATOM     18  C   UNL     1       2.071  -0.095  -0.462  0.00  0.00    +0.050 C 
BRANCH  18  19
ATOM     19  C   UNL     1       3.410   0.355  -0.996  0.00  0.00    -0.047 A 
ATOM     20  C   UNL     1       4.001  -0.311  -2.083  0.00  0.00    +0.003 A 
ATOM     21  C   UNL     1       5.257   0.087  -2.556  0.00  0.00    +0.000 A 
ATOM     22  C   UNL     1       5.933   1.147  -1.944  0.00  0.00    +0.000 A 
ATOM     23  C   UNL     1       5.355   1.811  -0.858  0.00  0.00    +0.000 A 
ATOM     24  C   UNL     1       4.099   1.415  -0.382  0.00  0.00    +0.003 A 
ENDBRANCH  18  19
ENDBRANCH   1  18
TORSDOF 6
