REMARK  Name = 
REMARK  3 active torsions:
REMARK  status: ('A' for Active; 'I' for Inactive)
REMARK    1  A    between atoms: C_2  and  C_4
REMARK    2  A    between atoms: C_4  and  C_5
REMARK    3  A    between atoms: C_4  and  C_12
REMARK                            x       y       z     vdW  Elec       q    Type
REMARK                         _______ _______ _______ _____ _____    ______ ____
ROOT
ATOM      1  C   UNL     1      -0.178  -1.103  -0.067  0.00  0.00    +0.083 C 
ENDROOT
BRANCH   1   2
ATOM      2  C   UNL     1       1.163  -0.381  -0.131  0.00  0.00    -0.037 A 
ATOM      3  C   UNL     1       1.418   0.810   0.580  0.00  0.00    +0.006 A 
ATOM      4  C   UNL     1       2.675   1.419   0.519  0.00  0.00    +0.020 A 
ATOM      5  C   UNL     1       3.697   0.849  -0.243  0.00  0.00    +0.041 A 
ATOM      6 CL   UNL     1       5.273   1.615  -0.315  0.00  0.00    -0.084 Cl
ATOM      7  C   UNL     1       3.462  -0.335  -0.946  0.00  0.00    +0.020 A 
ATOM      8  C   UNL     1       2.207  -0.947  -0.889  0.00  0.00    +0.006 A 
ENDBRANCH   1   2
BRANCH   1   9
ATOM      9  C   UNL     1      -1.376  -0.159   0.122  0.00  0.00    -0.019 A 
ATOM     10  C   UNL     1      -2.019   0.319  -1.041  0.00  0.00    +0.006 A 
ATOM     11  C   UNL     1      -3.112   1.184  -0.961  0.00  0.00    +0.000 A 
ATOM     12  C   UNL     1      -3.580   1.603   0.281  0.00  0.00    +0.001 A 
ATOM     13  C   UNL     1      -2.950   1.169   1.445  0.00  0.00    +0.020 A 
ATOM     14  C   UNL     1      -1.851   0.301   1.384  0.00  0.00    +0.045 A 
ATOM     15 CL   UNL     1      -1.104  -0.112   2.922  0.00  0.00    -0.083 Cl
ENDBRANCH   1   9
BRANCH   1  17
ATOM     16 CL   UNL     1       0.068  -3.857  -0.080  0.00  0.00    -0.104 Cl
ATOM     17  C   UNL     1      -0.181  -2.358   0.863  0.00  0.00    +0.183 C 
ATOM     18 CL   UNL     1       1.079  -2.335   2.140  0.00  0.00    -0.104 Cl
ENDBRANCH   1  17
TORSDOF 3
