REMARK  Name = 
REMARK  16 active torsions:
REMARK  status: ('A' for Active; 'I' for Inactive)
REMARK    1  A    between atoms: O_1  and  C_2
REMARK    2  A    between atoms: C_2  and  C_3
REMARK    3  A    between atoms: C_3  and  N_4
REMARK    4  A    between atoms: N_4  and  C_5
REMARK    5  A    between atoms: C_5  and  C_6
REMARK    6  A    between atoms: C_6  and  N_7
REMARK    7  A    between atoms: N_7  and  C_8
REMARK    8  A    between atoms: C_13  and  O_14
REMARK    9  A    between atoms: C_17  and  O_18
REMARK   10  A    between atoms: C_23  and  N_24
REMARK   11  A    between atoms: N_24  and  C_25
REMARK   12  A    between atoms: C_25  and  C_26
REMARK   13  A    between atoms: C_26  and  N_27
REMARK   14  A    between atoms: N_27  and  C_28
REMARK   15  A    between atoms: C_28  and  C_29
REMARK   16  A    between atoms: C_29  and  O_30
REMARK                            x       y       z     vdW  Elec       q    Type
REMARK                         _______ _______ _______ _____ _____    ______ ____
ROOT
ATOM      1  C   UNL     1       1.231  -0.065  -1.688  0.00  0.00    +0.039 A 
ATOM      2  C   UNL     1       0.832  -1.294  -1.096  0.00  0.00    +0.056 A 
ATOM      3  C   UNL     1       1.813  -2.373  -0.764  0.00  0.00    +0.200 C 
ATOM      4  O   UNL     1       3.022  -2.256  -1.103  0.00  0.00    -0.286 OA
ATOM      5  C   UNL     1       1.386  -3.571   0.017  0.00  0.00    +0.078 A 
ATOM      6  C   UNL     1       2.326  -4.529   0.472  0.00  0.00    +0.129 A 
ATOM      7  C   UNL     1       1.898  -5.635   1.211  0.00  0.00    +0.050 A 
ATOM      8  C   UNL     1       0.556  -5.786   1.541  0.00  0.00    +0.050 A 
ATOM      9  C   UNL     1      -0.387  -4.843   1.130  0.00  0.00    +0.129 A 
ATOM     10  C   UNL     1       0.015  -3.754   0.313  0.00  0.00    +0.078 A 
ATOM     11  C   UNL     1      -0.966  -2.828  -0.299  0.00  0.00    +0.200 C 
ATOM     12  O   UNL     1      -2.135  -3.227  -0.550  0.00  0.00    -0.286 OA
ATOM     13  C   UNL     1      -0.531  -1.488  -0.763  0.00  0.00    +0.056 A 
ATOM     14  C   UNL     1      -1.464  -0.433  -0.935  0.00  0.00    +0.039 A 
ATOM     15  C   UNL     1      -1.036   0.775  -1.500  0.00  0.00    +0.025 A 
ATOM     16  C   UNL     1       0.288   0.950  -1.883  0.00  0.00    +0.025 A 
ENDROOT
BRANCH   1  17
ATOM     17  N   UNL     1       2.582   0.159  -2.120  0.00  0.00    -0.342 N 
ATOM     18  H   UNL     1       3.013  -0.507  -2.799  0.00  0.00    +0.146 HD
BRANCH  17  19
ATOM     19  C   UNL     1       3.371   1.308  -1.674  0.00  0.00    +0.116 C 
BRANCH  19  20
ATOM     20  C   UNL     1       3.546   1.287  -0.155  0.00  0.00    +0.099 C 
BRANCH  20  21
ATOM     21  N   UNL     1       4.436   2.383   0.255  0.00  0.00    -0.312 NA
ATOM     22  H   UNL     1       5.425   2.122   0.031  0.00  0.00    +0.122 HD
BRANCH  21  23
ATOM     23  C   UNL     1       4.327   2.686   1.692  0.00  0.00    +0.108 C 
BRANCH  23  24
ATOM     24  C   UNL     1       4.888   1.565   2.578  0.00  0.00    +0.171 C 
BRANCH  24  25
ATOM     25  O   UNL     1       4.886   1.987   3.913  0.00  0.00    -0.394 OA
ATOM     26  H   UNL     1       5.243   1.227   4.442  0.00  0.00    +0.209 HD
ENDBRANCH  24  25
ENDBRANCH  23  24
ENDBRANCH  21  23
ENDBRANCH  20  21
ENDBRANCH  19  20
ENDBRANCH  17  19
ENDBRANCH   1  17
BRANCH   6  27
ATOM     27  O   UNL     1       3.686  -4.387   0.194  0.00  0.00    -0.506 OA
ATOM     28  H   UNL     1       4.369  -5.067   0.509  0.00  0.00    +0.292 HD
ENDBRANCH   6  27
BRANCH   9  29
ATOM     29  O   UNL     1      -1.698  -5.005   1.586  0.00  0.00    -0.506 OA
ATOM     30  H   UNL     1      -2.396  -4.275   1.546  0.00  0.00    +0.292 HD
ENDBRANCH   9  29
BRANCH  14  31
ATOM     31  N   UNL     1      -2.819  -0.561  -0.461  0.00  0.00    -0.342 N 
ATOM     32  H   UNL     1      -2.996  -1.098   0.417  0.00  0.00    +0.146 HD
BRANCH  31  33
ATOM     33  C   UNL     1      -3.963   0.106  -1.079  0.00  0.00    +0.116 C 
BRANCH  33  34
ATOM     34  C   UNL     1      -4.398   1.303  -0.234  0.00  0.00    +0.099 C 
BRANCH  34  35
ATOM     35  N   UNL     1      -5.497   2.012  -0.901  0.00  0.00    -0.312 NA
ATOM     36  H   UNL     1      -6.351   1.409  -0.827  0.00  0.00    +0.122 HD
BRANCH  35  37
ATOM     37  C   UNL     1      -5.792   3.292  -0.240  0.00  0.00    +0.108 C 
BRANCH  37  38
ATOM     38  C   UNL     1      -4.948   4.416  -0.849  0.00  0.00    +0.171 C 
BRANCH  38  39
ATOM     39  O   UNL     1      -5.249   5.637  -0.231  0.00  0.00    -0.394 OA
ATOM     40  H   UNL     1      -6.103   5.955  -0.628  0.00  0.00    +0.209 HD
ENDBRANCH  38  39
ENDBRANCH  37  38
ENDBRANCH  35  37
ENDBRANCH  34  35
ENDBRANCH  33  34
ENDBRANCH  31  33
ENDBRANCH  14  31
TORSDOF 16
