REMARK  Name = 
REMARK  7 active torsions:
REMARK  status: ('A' for Active; 'I' for Inactive)
REMARK    1  A    between atoms: C_1  and  O_2
REMARK    2  A    between atoms: O_2  and  C_3
REMARK    3  A    between atoms: C_11  and  C_12
REMARK    4  A    between atoms: C_12  and  O_13
REMARK    5  A    between atoms: O_13  and  C_14
REMARK    6  A    between atoms: C_19  and  N_20
REMARK    7  A    between atoms: C_21  and  C_22
REMARK                            x       y       z     vdW  Elec       q    Type
REMARK                         _______ _______ _______ _____ _____    ______ ____
ROOT
ATOM      1  C   UNL     1      -1.325  -1.214   0.427  0.00  0.00    +0.163 C 
ATOM      2  C   UNL     1      -1.714  -2.307  -0.606  0.00  0.00    +0.124 C 
ATOM      3  N   UNL     1      -0.673  -2.614  -1.610  0.00  0.00    -0.302 NA
ATOM      4  C   UNL     1      -0.821  -3.443  -0.402  0.00  0.00    +0.093 C 
ATOM      5  C   UNL     1       0.213  -3.080   0.647  0.00  0.00    +0.128 C 
ATOM      6  N   UNL     1      -0.072  -1.697   0.992  0.00  0.00    -0.295 N 
ATOM      7  C   UNL     1       0.897  -0.664   0.914  0.00  0.00    +0.087 C 
ATOM      8  C   UNL     1       0.441   0.414   0.320  0.00  0.00    +0.037 C 
ATOM      9  C   UNL     1      -0.984   0.228  -0.116  0.00  0.00    +0.114 C 
ATOM     10  C   UNL     1       1.267   1.632   0.234  0.00  0.00    +0.205 C 
ATOM     11  O   UNL     1       0.783   2.697  -0.233  0.00  0.00    -0.286 OA
ATOM     12  C   UNL     1       2.670   1.596   0.734  0.00  0.00    +0.079 C 
ATOM     13  C   UNL     1       3.152   0.464   1.318  0.00  0.00    +0.022 C 
ATOM     14  C   UNL     1       4.568   0.393   1.835  0.00  0.00    +0.050 C 
ATOM     15  C   UNL     1       2.261  -0.725   1.464  0.00  0.00    +0.205 C 
ATOM     16  O   UNL     1       2.653  -1.763   2.062  0.00  0.00    -0.286 OA
ATOM     17  H   UNL     1      -1.135  -3.116  -2.402  0.00  0.00    +0.123 HD
ENDROOT
BRANCH  12  18
ATOM     18  N   UNL     1       3.484   2.772   0.590  0.00  0.00    -0.355 N 
ATOM     19  H   UNL     1       4.466   2.826   0.937  0.00  0.00    +0.142 HD
ATOM     20  H   UNL     1       3.105   3.627   0.126  0.00  0.00    +0.142 HD
ENDBRANCH  12  18
BRANCH   1  22
ATOM     21  C   UNL     1      -3.578  -0.851   1.043  0.00  0.00    +0.196 C 
ATOM     22  O   UNL     1      -2.266  -1.140   1.491  0.00  0.00    -0.357 OA
ENDBRANCH   1  22
BRANCH   9  23
ATOM     23  C   UNL     1      -1.154   0.405  -1.642  0.00  0.00    +0.246 C 
BRANCH  23  24
ATOM     24  O   UNL     1      -1.115   1.782  -2.010  0.00  0.00    -0.450 OA
BRANCH  24  25
ATOM     25  C   UNL     1      -2.178   2.667  -1.800  0.00  0.00    +0.398 C 
ATOM     26  N   UNL     1      -2.027   4.040  -2.150  0.00  0.00    -0.295 N 
ATOM     27  O   UNL     1      -3.267   2.264  -1.310  0.00  0.00    -0.227 OA
ATOM     28  H   UNL     1      -2.811   4.714  -2.002  0.00  0.00    +0.148 HD
ATOM     29  H   UNL     1      -1.128   4.382  -2.555  0.00  0.00    +0.148 HD
ENDBRANCH  24  25
ENDBRANCH  23  24
ENDBRANCH   9  23
TORSDOF 5
