REMARK  Name = 
REMARK  42 active torsions:
REMARK  status: ('A' for Active; 'I' for Inactive)
REMARK    1  A    between atoms: C_1  and  O_2
REMARK    2  A    between atoms: O_2  and  C_3
REMARK    3  A    between atoms: C_5  and  C_6
REMARK    4  A    between atoms: C_6  and  C_7
REMARK    5  A    between atoms: C_10  and  O_11
REMARK    6  A    between atoms: O_11  and  C_12
REMARK    7  A    between atoms: C_13  and  O_14
REMARK    8  A    between atoms: O_14  and  C_15
REMARK    9  A    between atoms: N_20  and  C_21
REMARK   10  A    between atoms: N_20  and  C_22
REMARK   11  A    between atoms: C_22  and  C_23
REMARK   12  A    between atoms: C_23  and  C_24
REMARK   13  A    between atoms: C_24  and  O_25
REMARK   14  A    between atoms: O_25  and  C_26
REMARK   15  A    between atoms: C_26  and  C_28
REMARK   16  A    between atoms: C_28  and  C_29
REMARK   17  A    between atoms: C_29  and  C_30
REMARK   18  A    between atoms: C_31  and  C_32
REMARK   19  A    between atoms: C_32  and  C_33
REMARK   20  A    between atoms: C_33  and  C_34
REMARK   21  A    between atoms: C_34  and  O_36
REMARK   22  A    between atoms: O_36  and  C_37
REMARK   23  A    between atoms: C_37  and  C_38
REMARK   24  A    between atoms: C_38  and  C_39
REMARK   25  A    between atoms: C_39  and  N_40
REMARK   26  A    between atoms: N_40  and  C_41
REMARK   27  A    between atoms: C_46  and  O_47
REMARK   28  A    between atoms: O_47  and  C_48
REMARK   29  A    between atoms: C_49  and  O_50
REMARK   30  A    between atoms: O_50  and  C_51
REMARK   31  A    between atoms: C_54  and  C_55
REMARK   32  A    between atoms: C_55  and  C_56
REMARK   33  A    between atoms: C_58  and  O_59
REMARK   34  A    between atoms: O_59  and  C_60
REMARK   35  A    between atoms: C_61  and  O_62
REMARK   36  A    between atoms: O_62  and  C_63
REMARK   37  A    between atoms: C_64  and  O_65
REMARK   38  A    between atoms: O_65  and  C_66
REMARK   39  A    between atoms: C_69  and  O_70
REMARK   40  A    between atoms: O_70  and  C_71
REMARK   41  A    between atoms: C_72  and  O_73
REMARK   42  A    between atoms: O_73  and  C_74
REMARK                            x       y       z     vdW  Elec       q    Type
REMARK                         _______ _______ _______ _____ _____    ______ ____
ROOT
ATOM      1  C   UNL     1       1.572  -0.760  -2.568  0.00  0.00    -0.030 C 
ATOM      2  C   UNL     1       0.819  -1.861  -2.419  0.00  0.00    -0.030 C 
ENDROOT
BRANCH   1   3
ATOM      3  C   UNL     1       3.035  -0.836  -2.925  0.00  0.00    +0.038 C 
BRANCH   3   4
ATOM      4  C   UNL     1       3.894  -1.500  -1.839  0.00  0.00    +0.124 C 
BRANCH   4   5
ATOM      5  C   UNL     1       3.936  -0.698  -0.575  0.00  0.00    +0.307 C 
ATOM      6  O   UNL     1       4.322   0.503  -0.608  0.00  0.00    -0.251 OA
BRANCH   5   7
ATOM      7  O   UNL     1       3.609  -1.313   0.638  0.00  0.00    -0.465 OA
BRANCH   7   8
ATOM      8  C   UNL     1       3.870  -0.736   1.918  0.00  0.00    +0.230 C 
BRANCH   8   9
ATOM      9  C   UNL     1       5.117  -1.363   2.566  0.00  0.00    +0.023 C 
BRANCH   9  10
ATOM     10  C   UNL     1       6.452  -1.059   1.817  0.00  0.00    -0.071 C 
BRANCH  10  20
ATOM     11  C   UNL     1       8.582   0.123   1.547  0.00  0.00    -0.030 C 
ATOM     12  C   UNL     1       9.262   1.506   1.624  0.00  0.00    -0.053 A 
ATOM     13  C   UNL     1      10.361   1.802   0.793  0.00  0.00    +0.051 A 
ATOM     14  C   UNL     1      11.038   3.031   0.881  0.00  0.00    +0.162 A 
ATOM     15  C   UNL     1      10.584   4.008   1.773  0.00  0.00    +0.162 A 
ATOM     16  C   UNL     1       9.422   3.768   2.523  0.00  0.00    +0.053 A 
ATOM     17  C   UNL     1       8.739   2.547   2.417  0.00  0.00    -0.044 A 
ATOM     18  C   UNL     1       7.423   2.402   3.109  0.00  0.00    +0.017 C 
ATOM     19  C   UNL     1       6.603   1.272   2.481  0.00  0.00    -0.070 C 
ATOM     20  N   UNL     1       7.349  -0.018   2.434  0.00  0.00    +0.383 N 
ATOM     21  C   UNL     1       7.721  -0.426   3.826  0.00  0.00    -0.091 C 
BRANCH  14  22
ATOM     22  O   UNL     1      12.161   3.323   0.091  0.00  0.00    -0.491 OA
ATOM     23  C   UNL     1      12.721   2.443  -0.881  0.00  0.00    +0.277 C 
ENDBRANCH  14  22
BRANCH  15  24
ATOM     24  O   UNL     1      11.302   5.211   1.871  0.00  0.00    -0.491 OA
ATOM     25  C   UNL     1      10.952   6.294   2.725  0.00  0.00    +0.277 C 
ENDBRANCH  15  24
BRANCH  11  26
ATOM     26  C   UNL     1       9.633  -1.023   1.802  0.00  0.00    +0.025 C 
BRANCH  26  29
ATOM     27  C   UNL     1      12.700  -1.561  -0.418  0.00  0.00    +0.165 A 
ATOM     28  C   UNL     1      11.887  -1.213   0.675  0.00  0.00    +0.053 A 
ATOM     29  C   UNL     1      10.494  -1.378   0.612  0.00  0.00    -0.041 A 
ATOM     30  C   UNL     1       9.919  -1.932  -0.540  0.00  0.00    +0.053 A 
ATOM     31  C   UNL     1      10.723  -2.292  -1.639  0.00  0.00    +0.165 A 
ATOM     32  C   UNL     1      12.112  -2.100  -1.570  0.00  0.00    +0.204 A 
BRANCH  27  34
ATOM     33  C   UNL     1      14.837  -0.941   0.735  0.00  0.00    +0.277 C 
ATOM     34  O   UNL     1      14.095  -1.397  -0.394  0.00  0.00    -0.491 OA
ENDBRANCH  27  34
BRANCH  31  35
ATOM     35  O   UNL     1      10.183  -2.841  -2.813  0.00  0.00    -0.491 OA
ATOM     36  C   UNL     1       8.801  -3.115  -3.016  0.00  0.00    +0.277 C 
ENDBRANCH  31  35
BRANCH  32  37
ATOM     37  O   UNL     1      12.920  -2.443  -2.656  0.00  0.00    -0.488 OA
ATOM     38  C   UNL     1      13.305  -3.791  -2.899  0.00  0.00    +0.277 C 
ENDBRANCH  32  37
ENDBRANCH  26  29
ENDBRANCH  11  26
ENDBRANCH  10  20
ENDBRANCH   9  10
ENDBRANCH   8   9
ENDBRANCH   7   8
ENDBRANCH   5   7
ENDBRANCH   4   5
ENDBRANCH   3   4
ENDBRANCH   1   3
BRANCH   2  39
ATOM     39  C   UNL     1      -0.678  -1.785  -2.304  0.00  0.00    +0.038 C 
BRANCH  39  40
ATOM     40  C   UNL     1      -1.142  -1.133  -0.995  0.00  0.00    +0.124 C 
BRANCH  40  41
ATOM     41  C   UNL     1      -2.628  -0.951  -1.025  0.00  0.00    +0.307 C 
ATOM     42  O   UNL     1      -3.360  -1.574  -0.211  0.00  0.00    -0.251 OA
BRANCH  41  43
ATOM     43  O   UNL     1      -3.187  -0.117  -2.000  0.00  0.00    -0.465 OA
BRANCH  43  44
ATOM     44  C   UNL     1      -4.564  -0.147  -2.365  0.00  0.00    +0.230 C 
BRANCH  44  45
ATOM     45  C   UNL     1      -5.406   0.738  -1.436  0.00  0.00    +0.023 C 
BRANCH  45  46
ATOM     46  C   UNL     1      -6.900   0.771  -1.875  0.00  0.00    -0.071 C 
BRANCH  46  47
ATOM     47  N   UNL     1      -7.862  -0.052  -1.056  0.00  0.00    +0.383 N 
ATOM     48  C   UNL     1      -7.962   0.534   0.313  0.00  0.00    -0.091 C 
ATOM     49  C   UNL     1      -7.356  -1.456  -0.955  0.00  0.00    -0.070 C 
ATOM     50  C   UNL     1      -8.243  -2.343  -0.073  0.00  0.00    +0.017 C 
ATOM     51  C   UNL     1      -9.686  -2.241  -0.453  0.00  0.00    -0.044 A 
ATOM     52  C   UNL     1     -10.573  -3.218   0.019  0.00  0.00    +0.053 A 
ATOM     53  C   UNL     1     -11.908  -3.247  -0.415  0.00  0.00    +0.162 A 
ATOM     54  C   UNL     1     -12.338  -2.320  -1.371  0.00  0.00    +0.162 A 
ATOM     55  C   UNL     1     -11.446  -1.335  -1.834  0.00  0.00    +0.051 A 
ATOM     56  C   UNL     1     -10.149  -1.206  -1.291  0.00  0.00    -0.053 A 
ATOM     57  C   UNL     1      -9.206  -0.087  -1.770  0.00  0.00    -0.030 C 
BRANCH  53  58
ATOM     58  O   UNL     1     -12.828  -4.196   0.059  0.00  0.00    -0.491 OA
ATOM     59  C   UNL     1     -12.535  -5.186   1.041  0.00  0.00    +0.277 C 
ENDBRANCH  53  58
BRANCH  54  60
ATOM     60  O   UNL     1     -13.662  -2.405  -1.830  0.00  0.00    -0.491 OA
ATOM     61  C   UNL     1     -14.251  -1.510  -2.767  0.00  0.00    +0.277 C 
ENDBRANCH  54  60
BRANCH  57  62
ATOM     62  C   UNL     1      -9.918   1.315  -1.930  0.00  0.00    +0.025 C 
BRANCH  62  63
ATOM     63  C   UNL     1     -10.404   2.004  -0.669  0.00  0.00    -0.041 A 
ATOM     64  C   UNL     1     -11.437   1.461   0.105  0.00  0.00    +0.053 A 
ATOM     65  C   UNL     1     -11.877   2.093   1.283  0.00  0.00    +0.165 A 
ATOM     66  C   UNL     1     -11.282   3.317   1.676  0.00  0.00    +0.204 A 
ATOM     67  C   UNL     1     -10.304   3.907   0.860  0.00  0.00    +0.165 A 
ATOM     68  C   UNL     1      -9.873   3.251  -0.306  0.00  0.00    +0.053 A 
BRANCH  65  69
ATOM     69  O   UNL     1     -12.904   1.532   2.057  0.00  0.00    -0.491 OA
ATOM     70  C   UNL     1     -13.589   0.320   1.754  0.00  0.00    +0.277 C 
ENDBRANCH  65  69
BRANCH  66  71
ATOM     71  O   UNL     1     -11.616   4.000   2.861  0.00  0.00    -0.488 OA
ATOM     72  C   UNL     1     -12.368   3.469   3.951  0.00  0.00    +0.277 C 
ENDBRANCH  66  71
BRANCH  67  73
ATOM     73  O   UNL     1      -9.767   5.144   1.252  0.00  0.00    -0.491 OA
ATOM     74  C   UNL     1      -8.763   5.856   0.536  0.00  0.00    +0.277 C 
ENDBRANCH  67  73
ENDBRANCH  62  63
ENDBRANCH  57  62
ENDBRANCH  46  47
ENDBRANCH  45  46
ENDBRANCH  44  45
ENDBRANCH  43  44
ENDBRANCH  41  43
ENDBRANCH  40  41
ENDBRANCH  39  40
ENDBRANCH   2  39
TORSDOF 30
