REMARK  Name = 
REMARK  4 active torsions:
REMARK  status: ('A' for Active; 'I' for Inactive)
REMARK    1  A    between atoms: C_5  and  C_8
REMARK    2  A    between atoms: N_10  and  C_11
REMARK    3  A    between atoms: C_11  and  C_12
REMARK    4  A    between atoms: C_12  and  N_13
REMARK                            x       y       z     vdW  Elec       q    Type
REMARK                         _______ _______ _______ _____ _____    ______ ____
ROOT
ATOM      1  C   UNL     1       2.093   0.596  -1.039  0.00  0.00    +0.244 C 
ATOM      2  O   UNL     1       1.811   0.926  -2.224  0.00  0.00    -0.270 OA
ATOM      3  N   UNL     1       1.034   0.273  -0.124  0.00  0.00    -0.310 N 
ATOM      4  H   UNL     1       1.248   0.175   0.894  0.00  0.00    +0.149 HD
ENDROOT
BRANCH   1   9
ATOM      5 CL   UNL     1       7.903   0.488   0.650  0.00  0.00    -0.084 Cl
ATOM      6  C   UNL     1       6.218   0.517   0.164  0.00  0.00    +0.041 A 
ATOM      7  C   UNL     1       5.812   1.318  -0.906  0.00  0.00    +0.021 A 
ATOM      8  C   UNL     1       4.469   1.341  -1.296  0.00  0.00    +0.014 A 
ATOM      9  C   UNL     1       3.513   0.567  -0.612  0.00  0.00    +0.037 A 
ATOM     10  C   UNL     1       3.936  -0.246   0.457  0.00  0.00    +0.014 A 
ATOM     11  C   UNL     1       5.280  -0.266   0.843  0.00  0.00    +0.021 A 
ENDBRANCH   1   9
BRANCH   3  12
ATOM     12  C   UNL     1      -0.350   0.148  -0.581  0.00  0.00    +0.120 C 
BRANCH  12  13
ATOM     13  C   UNL     1      -1.280  -0.222   0.581  0.00  0.00    +0.103 C 
BRANCH  13  14
ATOM     14  N   UNL     1      -2.654  -0.466   0.090  0.00  0.00    -0.297 NA
ATOM     15  C   UNL     1      -3.371  -1.391   0.993  0.00  0.00    +0.112 C 
ATOM     16  C   UNL     1      -4.873  -1.450   0.652  0.00  0.00    +0.175 C 
ATOM     17  O   UNL     1      -5.124  -0.883  -0.618  0.00  0.00    -0.377 OA
ATOM     18  C   UNL     1      -4.828   0.502  -0.591  0.00  0.00    +0.175 C 
ATOM     19  C   UNL     1      -3.415   0.792  -0.038  0.00  0.00    +0.112 C 
ENDBRANCH  13  14
ENDBRANCH  12  13
ENDBRANCH   3  12
TORSDOF 4
