REMARK  Name = 
REMARK  5 active torsions:
REMARK  status: ('A' for Active; 'I' for Inactive)
REMARK    1  A    between atoms: C_2  and  C_4
REMARK    2  A    between atoms: C_4  and  S_5
REMARK    3  A    between atoms: S_5  and  C_7
REMARK    4  A    between atoms: C_7  and  C_8
REMARK    5  A    between atoms: C_7  and  C_14
REMARK                            x       y       z     vdW  Elec       q    Type
REMARK                         _______ _______ _______ _____ _____    ______ ____
ROOT
ATOM      1  C   UNL     1       0.236   0.086  -0.593  0.00  0.00    +0.139 C 
ENDROOT
BRANCH   1   2
ATOM      2  C   UNL     1      -0.444   1.390  -0.961  0.00  0.00    -0.028 A 
ATOM      3  C   UNL     1      -1.062   2.199   0.013  0.00  0.00    +0.005 A 
ATOM      4  C   UNL     1      -1.683   3.398  -0.351  0.00  0.00    +0.000 A 
ATOM      5  C   UNL     1      -1.694   3.806  -1.686  0.00  0.00    +0.000 A 
ATOM      6  C   UNL     1      -1.084   3.015  -2.661  0.00  0.00    +0.000 A 
ATOM      7  C   UNL     1      -0.462   1.815  -2.304  0.00  0.00    +0.005 A 
ENDBRANCH   1   2
BRANCH   1   8
ATOM      8  C   UNL     1      -0.736  -0.908   0.026  0.00  0.00    -0.028 A 
ATOM      9  C   UNL     1      -1.091  -0.876   1.390  0.00  0.00    +0.005 A 
ATOM     10  C   UNL     1      -2.015  -1.789   1.907  0.00  0.00    +0.000 A 
ATOM     11  C   UNL     1      -2.608  -2.737   1.071  0.00  0.00    +0.000 A 
ATOM     12  C   UNL     1      -2.282  -2.769  -0.285  0.00  0.00    +0.000 A 
ATOM     13  C   UNL     1      -1.358  -1.859  -0.807  0.00  0.00    +0.005 A 
ENDBRANCH   1   8
BRANCH   1  14
ATOM     14  S   UNL     1       1.765   0.372   0.361  0.00  0.00    +0.043 S 
ATOM     15  O   UNL     1       1.366   1.120   1.626  0.00  0.00    -0.256 OA
BRANCH  14  16
ATOM     16  C   UNL     1       2.318  -1.246   0.941  0.00  0.00    +0.200 C 
BRANCH  16  18
ATOM     17  N   UNL     1       4.835  -1.129   0.661  0.00  0.00    -0.329 N 
ATOM     18  C   UNL     1       3.693  -1.131   1.517  0.00  0.00    +0.223 C 
ATOM     19  O   UNL     1       3.843  -0.995   2.760  0.00  0.00    -0.275 OA
ATOM     20  H   UNL     1       5.795  -1.034   1.062  0.00  0.00    +0.145 HD
ATOM     21  H   UNL     1       4.725  -1.216  -0.374  0.00  0.00    +0.145 HD
ENDBRANCH  16  18
ENDBRANCH  14  16
ENDBRANCH   1  14
TORSDOF 5
