REMARK  Name = 
REMARK  17 active torsions:
REMARK  status: ('A' for Active; 'I' for Inactive)
REMARK    1  A    between atoms: C_1  and  C_2
REMARK    2  A    between atoms: C_2  and  O_3
REMARK    3  A    between atoms: O_3  and  C_4
REMARK    4  A    between atoms: C_4  and  C_6
REMARK    5  A    between atoms: C_6  and  C_7
REMARK    6  A    between atoms: C_6  and  N_15
REMARK    7  A    between atoms: C_7  and  C_8
REMARK    8  A    between atoms: C_8  and  C_9
REMARK    9  A    between atoms: N_15  and  CA_16
REMARK   10  A    between atoms: CA_16  and  CB_17
REMARK   11  A    between atoms: CA_16  and  C_18
REMARK   12  A    between atoms: C_24  and  O_25
REMARK   13  A    between atoms: O_25  and  C_26
REMARK   14  A    between atoms: C_27  and  O_28
REMARK   15  A    between atoms: O_28  and  C_29
REMARK   16  A    between atoms: C_33  and  C_34
REMARK   17  A    between atoms: C_34  and  O_35
REMARK                            x       y       z     vdW  Elec       q    Type
REMARK                         _______ _______ _______ _____ _____    ______ ____
ROOT
ATOM      1  C   ALA A   1       0.849   0.453   1.268  0.00  0.00    +0.233 C 
ATOM      2  O   ALA A   1       1.091   1.483   1.952  0.00  0.00    -0.274 OA
ATOM      3  N   UNK A   2       1.781   0.084   0.226  0.00  0.00    -0.282 N 
ATOM      4  C   UNK A   2       2.359  -1.278   0.238  0.00  0.00    +0.144 C 
ATOM      5  C   UNK A   2       3.818  -1.298  -0.147  0.00  0.00    -0.023 A 
ATOM      6  C   UNK A   2       4.660  -2.313   0.327  0.00  0.00    +0.054 A 
ATOM      7  C   UNK A   2       6.015  -2.357  -0.055  0.00  0.00    +0.162 A 
ATOM      8  C   UNK A   2       6.526  -1.369  -0.912  0.00  0.00    +0.162 A 
ATOM      9  C   UNK A   2       5.665  -0.378  -1.421  0.00  0.00    +0.053 A 
ATOM     10  C   UNK A   2       4.315  -0.348  -1.042  0.00  0.00    -0.037 A 
ATOM     11  C   UNK A   2       3.365   0.639  -1.642  0.00  0.00    +0.069 C 
ATOM     12  C   UNK A   2       2.409   1.173  -0.561  0.00  0.00    +0.189 C 
ENDROOT
BRANCH   1  13
ATOM     13  CA  ALA A   1      -0.389  -0.361   1.623  0.00  0.00    +0.138 C 
ATOM     14  CB  ALA A   1      -0.701  -1.533   0.676  0.00  0.00    +0.034 C 
BRANCH  13  15
ATOM     15  N   ALA A   1      -1.582   0.502   1.787  0.00  0.00    -0.294 NA
ATOM     16  H   ALA A   1      -1.430   1.158   2.595  0.00  0.00    +0.123 HD
BRANCH  15  17
ATOM     17  C   UNK A   0      -2.017   1.208   0.554  0.00  0.00    +0.164 C 
BRANCH  17  18
ATOM     18  C   UNK A   0      -2.252   2.678   0.819  0.00  0.00    +0.324 C 
ATOM     19  O   UNK A   0      -1.263   3.438   1.012  0.00  0.00    -0.249 OA
BRANCH  18  20
ATOM     20  O   UNK A   0      -3.553   3.203   0.834  0.00  0.00    -0.464 OA
BRANCH  20  22
ATOM     21  C   UNK A   0      -5.306   4.847   0.798  0.00  0.00    +0.048 C 
ATOM     22  C   UNK A   0      -3.825   4.583   1.036  0.00  0.00    +0.229 C 
ENDBRANCH  20  22
ENDBRANCH  18  20
ENDBRANCH  17  18
BRANCH  17  23
ATOM     23  C   UNK A   0      -3.259   0.520  -0.064  0.00  0.00    +0.035 C 
BRANCH  23  24
ATOM     24  C   UNK A   0      -4.355   0.166   0.962  0.00  0.00    +0.037 C 
BRANCH  24  25
ATOM     25  C   UNK A   0      -5.466  -0.599   0.297  0.00  0.00    -0.047 A 
ATOM     26  C   UNK A   0      -6.579   0.071  -0.241  0.00  0.00    +0.003 A 
ATOM     27  C   UNK A   0      -7.577  -0.648  -0.910  0.00  0.00    +0.000 A 
ATOM     28  C   UNK A   0      -7.467  -2.035  -1.054  0.00  0.00    +0.000 A 
ATOM     29  C   UNK A   0      -6.357  -2.707  -0.532  0.00  0.00    +0.000 A 
ATOM     30  C   UNK A   0      -5.359  -1.992   0.138  0.00  0.00    +0.003 A 
ENDBRANCH  24  25
ENDBRANCH  23  24
ENDBRANCH  17  23
ENDBRANCH  15  17
ENDBRANCH  13  15
ENDBRANCH   1  13
BRANCH   7  31
ATOM     31  O   UNK A   2       6.884  -3.364   0.399  0.00  0.00    -0.491 OA
ATOM     32  C   UNK A   2       6.478  -4.491   1.168  0.00  0.00    +0.277 C 
ENDBRANCH   7  31
BRANCH   8  33
ATOM     33  O   UNK A   2       7.891  -1.410  -1.240  0.00  0.00    -0.491 OA
ATOM     34  C   UNK A   2       8.568  -0.425  -2.010  0.00  0.00    +0.277 C 
ENDBRANCH   8  33
BRANCH  12  35
ATOM     35  C   UNK A   2       1.359   2.048  -1.200  0.00  0.00    +0.326 C 
ATOM     36  O   UNK A   2       1.253   3.254  -0.854  0.00  0.00    -0.249 OA
BRANCH  35  37
ATOM     37  O   UNK A   2       0.469   1.532  -2.143  0.00  0.00    -0.479 OA
ATOM     38  H   UNK A   2       0.474   0.550  -2.382  0.00  0.00    +0.295 HD
ENDBRANCH  35  37
ENDBRANCH  12  35
TORSDOF 13
