REMARK  Name = 
REMARK  5 active torsions:
REMARK  status: ('A' for Active; 'I' for Inactive)
REMARK    1  A    between atoms: C_1  and  C_2
REMARK    2  A    between atoms: C_2  and  C_3
REMARK    3  A    between atoms: C_4  and  C_5
REMARK    4  A    between atoms: C_11  and  C_12
REMARK    5  A    between atoms: C_12  and  N_13
REMARK                            x       y       z     vdW  Elec       q    Type
REMARK                         _______ _______ _______ _____ _____    ______ ____
ROOT
ATOM      1  C   UNL     1      -2.563   0.695  -0.688  0.00  0.00    -0.017 A 
ATOM      2  C   UNL     1      -3.633   0.209   0.059  0.00  0.00    +0.017 A 
ATOM      3  C   UNL     1      -4.844   0.989   0.465  0.00  0.00    +0.063 C 
ATOM      4  N   UNL     1      -3.412  -1.072   0.425  0.00  0.00    -0.361 N 
ATOM      5  C   UNL     1      -2.212  -1.409  -0.080  0.00  0.00    +0.027 A 
ATOM      6  C   UNL     1      -1.653  -0.349  -0.751  0.00  0.00    +0.042 A 
ATOM      7  C   UNL     1      -0.303  -0.416  -1.328  0.00  0.00    +0.169 C 
ATOM      8  O   UNL     1       0.157   0.528  -2.023  0.00  0.00    -0.292 OA
ATOM      9  C   UNL     1       0.549  -1.628  -1.024  0.00  0.00    +0.075 C 
ATOM     10  C   UNL     1      -0.338  -2.893  -0.841  0.00  0.00    +0.019 C 
ATOM     11  C   UNL     1      -1.494  -2.703   0.170  0.00  0.00    +0.054 C 
ATOM     12  H   UNL     1      -4.030  -1.673   1.014  0.00  0.00    +0.165 HD
ENDROOT
BRANCH   1  14
ATOM     13  C   UNL     1      -1.540   2.907  -0.173  0.00  0.00    +0.009 C 
ATOM     14  C   UNL     1      -2.368   2.105  -1.172  0.00  0.00    +0.034 C 
ENDBRANCH   1  14
BRANCH   9  15
ATOM     15  C   UNL     1       1.425  -1.370   0.222  0.00  0.00    +0.096 C 
BRANCH  15  16
ATOM     16  N   UNL     1       2.299  -0.190   0.033  0.00  0.00    -0.297 NA
ATOM     17  C   UNL     1       2.730   0.350   1.335  0.00  0.00    +0.112 C 
ATOM     18  C   UNL     1       3.603   1.607   1.131  0.00  0.00    +0.175 C 
ATOM     19  O   UNL     1       3.963   1.802  -0.225  0.00  0.00    -0.377 OA
ATOM     20  C   UNL     1       4.529   0.615  -0.742  0.00  0.00    +0.175 C 
ATOM     21  C   UNL     1       3.480  -0.513  -0.798  0.00  0.00    +0.112 C 
ENDBRANCH  15  16
ENDBRANCH   9  15
TORSDOF 3
