REMARK  Name = 
REMARK  7 active torsions:
REMARK  status: ('A' for Active; 'I' for Inactive)
REMARK    1  A    between atoms: C_3  and  C_4
REMARK    2  A    between atoms: C_5  and  O_6
REMARK    3  A    between atoms: C_5  and  C_7
REMARK    4  A    between atoms: C_7  and  C_9
REMARK    5  A    between atoms: C_11  and  C_12
REMARK    6  A    between atoms: C_14  and  O_15
REMARK    7  A    between atoms: C_27  and  C_28
REMARK                            x       y       z     vdW  Elec       q    Type
REMARK                         _______ _______ _______ _____ _____    ______ ____
ROOT
ATOM      1  C   UNL     1       0.785  -0.672  -0.567  0.00  0.00    +0.003 C 
ATOM      2  C   UNL     1       1.647  -1.906  -0.808  0.00  0.00    +0.011 C 
ATOM      3  C   UNL     1       3.102  -1.393  -0.671  0.00  0.00    +0.026 C 
ATOM      4  C   UNL     1       3.913  -1.619  -1.956  0.00  0.00    +0.011 C 
ATOM      5  C   UNL     1       3.008   0.113  -0.217  0.00  0.00    +0.133 C 
ATOM      6  C   UNL     1       1.585   0.176   0.434  0.00  0.00    +0.009 C 
ATOM      7  C   UNL     1       1.635  -0.448   1.873  0.00  0.00    +0.015 C 
ATOM      8  C   UNL     1       0.934   1.586   0.494  0.00  0.00    +0.043 C 
ATOM      9  C   UNL     1      -0.586   1.541   0.843  0.00  0.00    +0.137 C 
ATOM     10  C   UNL     1      -1.410   0.553  -0.072  0.00  0.00    +0.086 C 
ATOM     11 CL   UNL     1      -1.411   1.321  -1.722  0.00  0.00    -0.114 Cl
ATOM     12  C   UNL     1      -0.700  -0.858  -0.170  0.00  0.00    +0.018 C 
ATOM     13  C   UNL     1      -1.429  -1.792  -1.163  0.00  0.00    +0.010 C 
ATOM     14  C   UNL     1      -2.904  -1.968  -0.795  0.00  0.00    +0.032 C 
ATOM     15  C   UNL     1      -3.572  -0.624  -0.632  0.00  0.00    -0.055 C 
ATOM     16  C   UNL     1      -4.708  -0.367  -1.300  0.00  0.00    +0.051 C 
ATOM     17  C   UNL     1      -5.367   0.935  -1.190  0.00  0.00    +0.179 C 
ATOM     18  O   UNL     1      -6.441   1.155  -1.809  0.00  0.00    -0.288 OA
ATOM     19  C   UNL     1      -4.763   1.983  -0.371  0.00  0.00    +0.047 C 
ATOM     20  C   UNL     1      -3.640   1.750   0.308  0.00  0.00    -0.011 C 
ATOM     21  C   UNL     1      -2.940   0.388   0.342  0.00  0.00    +0.029 C 
ATOM     22  C   UNL     1      -3.167  -0.168   1.774  0.00  0.00    +0.022 C 
ENDROOT
BRANCH   5  23
ATOM     23  O   UNL     1       3.030   0.959  -1.351  0.00  0.00    -0.380 OA
ATOM     24  H   UNL     1       3.966   1.030  -1.675  0.00  0.00    +0.211 HD
ENDBRANCH   5  23
BRANCH   5  25
ATOM     25  C   UNL     1       4.124   0.532   0.751  0.00  0.00    +0.180 C 
ATOM     26  O   UNL     1       4.777  -0.311   1.348  0.00  0.00    -0.293 OA
BRANCH  25  27
ATOM     27  C   UNL     1       4.405   1.983   1.030  0.00  0.00    +0.186 C 
ATOM     28 CL   UNL     1       6.066   2.385   0.532  0.00  0.00    -0.117 Cl
ENDBRANCH  25  27
ENDBRANCH   5  25
BRANCH   9  29
ATOM     29  O   UNL     1      -0.748   1.241   2.203  0.00  0.00    -0.390 OA
ATOM     30  H   UNL     1      -0.488   2.051   2.715  0.00  0.00    +0.210 HD
ENDBRANCH   9  29
TORSDOF 4
