REMARK  Name = 
REMARK  4 active torsions:
REMARK  status: ('A' for Active; 'I' for Inactive)
REMARK    1  A    between atoms: O_1  and  C_2
REMARK    2  A    between atoms: C_5  and  O_6
REMARK    3  A    between atoms: O_6  and  C_7
REMARK    4  A    between atoms: C_7  and  C_8
REMARK                            x       y       z     vdW  Elec       q    Type
REMARK                         _______ _______ _______ _____ _____    ______ ____
ROOT
ATOM      1  C   UNL     1      -4.285  -0.722   0.575  0.00  0.00    +0.117 A 
ATOM      2  C   UNL     1      -3.346  -0.977   1.579  0.00  0.00    +0.049 A 
ATOM      3  C   UNL     1      -1.986  -0.744   1.347  0.00  0.00    +0.049 A 
ATOM      4  C   UNL     1      -1.554  -0.252   0.100  0.00  0.00    +0.121 A 
ATOM      5  C   UNL     1      -2.501   0.001  -0.900  0.00  0.00    +0.049 A 
ATOM      6  C   UNL     1      -3.859  -0.232  -0.667  0.00  0.00    +0.049 A 
ENDROOT
BRANCH   1   7
ATOM      7  O   UNL     1      -5.636  -0.958   0.820  0.00  0.00    -0.507 OA
ATOM      8  H   UNL     1      -6.341  -0.784   0.113  0.00  0.00    +0.292 HD
ENDBRANCH   1   7
BRANCH   4   9
ATOM      9  O   UNL     1      -0.203  -0.002  -0.184  0.00  0.00    -0.487 OA
BRANCH   9  10
ATOM     10  C   UNL     1       0.866  -0.212   0.735  0.00  0.00    +0.264 C 
BRANCH  10  11
ATOM     11  C   UNL     1       2.161   0.165   0.078  0.00  0.00    -0.010 A 
ATOM     12  C   UNL     1       2.881  -0.784  -0.666  0.00  0.00    +0.007 A 
ATOM     13  C   UNL     1       4.068  -0.422  -1.309  0.00  0.00    +0.000 A 
ATOM     14  C   UNL     1       4.538   0.892  -1.224  0.00  0.00    +0.000 A 
ATOM     15  C   UNL     1       3.818   1.846  -0.500  0.00  0.00    +0.000 A 
ATOM     16  C   UNL     1       2.630   1.488   0.145  0.00  0.00    +0.007 A 
ENDBRANCH  10  11
ENDBRANCH   9  10
ENDBRANCH   4   9
TORSDOF 4
