REMARK  Name = 
REMARK  16 active torsions:
REMARK  status: ('A' for Active; 'I' for Inactive)
REMARK    1  A    between atoms: O_1  and  C_2
REMARK    2  A    between atoms: C_2  and  C_4
REMARK    3  A    between atoms: C_4  and  C_5
REMARK    4  A    between atoms: C_5  and  C_8
REMARK    5  A    between atoms: C_8  and  S_9
REMARK    6  A    between atoms: S_9  and  C_10
REMARK    7  A    between atoms: C_10  and  C_11
REMARK    8  A    between atoms: C_10  and  C_23
REMARK    9  A    between atoms: C_11  and  C_12
REMARK   10  A    between atoms: C_12  and  C_13
REMARK   11  A    between atoms: C_18  and  C_19
REMARK   12  A    between atoms: C_19  and  O_20
REMARK   13  A    between atoms: C_19  and  C_21
REMARK   14  A    between atoms: C_19  and  C_22
REMARK   15  A    between atoms: C_27  and  C_28
REMARK   16  A    between atoms: C_29  and  C_30
REMARK                            x       y       z     vdW  Elec       q    Type
REMARK                         _______ _______ _______ _____ _____    ______ ____
ROOT
ATOM      1  C   UNL     1      -1.471   0.401  -0.011  0.00  0.00    +0.077 C 
ENDROOT
BRANCH   1   2
ATOM      2  C   UNL     1      -0.249   0.157   0.863  0.00  0.00    -0.034 A 
ATOM      3  C   UNL     1      -0.354  -0.500   2.105  0.00  0.00    +0.005 A 
ATOM      4  C   UNL     1       0.783  -0.771   2.861  0.00  0.00    +0.001 A 
ATOM      5  C   UNL     1       2.043  -0.397   2.398  0.00  0.00    +0.008 A 
ATOM      6  C   UNL     1       2.180   0.276   1.168  0.00  0.00    -0.025 A 
ATOM      7  C   UNL     1       1.029   0.526   0.399  0.00  0.00    +0.012 A 
BRANCH   6   8
ATOM      8  C   UNL     1       3.503   0.682   0.637  0.00  0.00    +0.010 C 
ATOM      9  C   UNL     1       4.574   0.877   1.423  0.00  0.00    +0.028 C 
BRANCH   9  10
ATOM     10  C   UNL     1       5.927   1.211   0.929  0.00  0.00    +0.065 A 
ATOM     11  N   UNL     1       6.976   0.992   1.771  0.00  0.00    -0.247 NA
ATOM     12  C   UNL     1       8.263   1.251   1.418  0.00  0.00    +0.073 A 
ATOM     13  C   UNL     1       8.548   1.776   0.140  0.00  0.00    +0.001 A 
ATOM     14  C   UNL     1       9.880   2.031  -0.224  0.00  0.00    +0.011 A 
ATOM     15  C   UNL     1      10.917   1.761   0.678  0.00  0.00    +0.021 A 
ATOM     16  C   UNL     1      10.630   1.244   1.948  0.00  0.00    +0.043 A 
ATOM     17 CL   UNL     1      11.934   0.905   3.070  0.00  0.00    -0.083 Cl
ATOM     18  C   UNL     1       9.304   0.992   2.318  0.00  0.00    +0.048 A 
ATOM     19  C   UNL     1       7.487   2.035  -0.737  0.00  0.00    +0.012 A 
ATOM     20  C   UNL     1       6.174   1.756  -0.347  0.00  0.00    +0.028 A 
ENDBRANCH   9  10
ENDBRANCH   6   8
ENDBRANCH   1   2
BRANCH   1  21
ATOM     21  S   UNL     1      -2.931   0.890   1.001  0.00  0.00    -0.152 S 
BRANCH  21  22
ATOM     22  C   UNL     1      -3.881   1.796  -0.276  0.00  0.00    +0.077 C 
BRANCH  22  23
ATOM     23  C   UNL     1      -3.291   3.187  -0.581  0.00  0.00    -0.010 C 
ATOM     24  C   UNL     1      -2.474   3.321  -1.864  0.00  0.00    +0.009 C 
ATOM     25  C   UNL     1      -3.893   3.867  -1.809  0.00  0.00    +0.009 C 
BRANCH  23  26
ATOM     26  C   UNL     1      -2.922   4.145   0.572  0.00  0.00    +0.128 C 
BRANCH  26  27
ATOM     27  C   UNL     1      -4.085   4.401   1.484  0.00  0.00    +0.305 C 
ATOM     28  O   UNL     1      -5.205   4.731   1.011  0.00  0.00    -0.251 OA
BRANCH  27  29
ATOM     29  O   UNL     1      -3.908   4.332   2.863  0.00  0.00    -0.481 OA
ATOM     30  H   UNL     1      -4.670   4.555   3.495  0.00  0.00    +0.295 HD
ENDBRANCH  27  29
ENDBRANCH  26  27
ENDBRANCH  23  26
ENDBRANCH  22  23
ENDBRANCH  21  22
ENDBRANCH   1  21
BRANCH   1  31
ATOM     31  C   UNL     1      -1.776  -0.808  -0.923  0.00  0.00    +0.023 C 
BRANCH  31  32
ATOM     32  C   UNL     1      -1.942  -2.143  -0.178  0.00  0.00    +0.037 C 
BRANCH  32  33
ATOM     33  C   UNL     1      -2.502  -3.215  -1.096  0.00  0.00    -0.041 A 
ATOM     34  C   UNL     1      -1.590  -3.793  -2.002  0.00  0.00    +0.004 A 
ATOM     35  C   UNL     1      -1.983  -4.797  -2.878  0.00  0.00    +0.000 A 
ATOM     36  C   UNL     1      -3.296  -5.250  -2.870  0.00  0.00    +0.000 A 
ATOM     37  C   UNL     1      -4.228  -4.691  -1.995  0.00  0.00    +0.007 A 
ATOM     38  C   UNL     1      -3.875  -3.647  -1.103  0.00  0.00    -0.013 A 
BRANCH  38  39
ATOM     39  C   UNL     1      -4.930  -3.108  -0.107  0.00  0.00    +0.086 C 
ATOM     40  C   UNL     1      -6.395  -3.349  -0.556  0.00  0.00    +0.046 C 
ATOM     41  C   UNL     1      -4.732  -3.809   1.250  0.00  0.00    +0.046 C 
BRANCH  39  42
ATOM     42  O   UNL     1      -4.779  -1.722   0.076  0.00  0.00    -0.384 OA
ATOM     43  H   UNL     1      -4.901  -1.286  -0.809  0.00  0.00    +0.211 HD
ENDBRANCH  39  42
ENDBRANCH  38  39
ENDBRANCH  32  33
ENDBRANCH  31  32
ENDBRANCH   1  31
TORSDOF 14
