REMARK  Name = 
REMARK  7 active torsions:
REMARK  status: ('A' for Active; 'I' for Inactive)
REMARK    1  A    between atoms: C_1  and  C_2
REMARK    2  A    between atoms: C_2  and  O_3
REMARK    3  A    between atoms: O_3  and  C_4
REMARK    4  A    between atoms: N_6  and  C_7
REMARK    5  A    between atoms: C_19  and  C_21
REMARK    6  A    between atoms: C_21  and  C_22
REMARK    7  A    between atoms: C_22  and  N_23
REMARK                            x       y       z     vdW  Elec       q    Type
REMARK                         _______ _______ _______ _____ _____    ______ ____
ROOT
ATOM      1  C   UNL     1       2.072  -0.735  -0.892  0.00  0.00    +0.038 A 
ATOM      2  C   UNL     1       0.987   0.152  -0.977  0.00  0.00    +0.048 A 
ATOM      3  C   UNL     1       0.991   1.357  -0.259  0.00  0.00    +0.057 A 
ATOM      4  C   UNL     1       2.104   1.685   0.533  0.00  0.00    +0.035 A 
ATOM      5  S   UNL     1       2.083   3.210   1.485  0.00  0.00    -0.086 S 
ATOM      6  C   UNL     1       1.481   4.184   0.100  0.00  0.00    +0.035 A 
ATOM      7  C   UNL     1       2.057   5.424  -0.201  0.00  0.00    +0.017 A 
ATOM      8  C   UNL     1       1.550   6.192  -1.252  0.00  0.00    +0.001 A 
ATOM      9  C   UNL     1       0.485   5.712  -2.018  0.00  0.00    +0.002 A 
ATOM     10  C   UNL     1      -0.080   4.465  -1.734  0.00  0.00    +0.025 A 
ATOM     11  C   UNL     1       0.399   3.701  -0.660  0.00  0.00    +0.055 A 
ATOM     12  N   UNL     1      -0.044   2.343  -0.457  0.00  0.00    -0.238 N 
ATOM     13  C   UNL     1      -1.451   2.035  -0.297  0.00  0.00    +0.225 C 
ATOM     14  O   UNL     1      -2.317   2.900  -0.598  0.00  0.00    -0.275 OA
ATOM     15  C   UNL     1       3.188   0.810   0.620  0.00  0.00    +0.019 A 
ATOM     16  C   UNL     1       3.170  -0.401  -0.077  0.00  0.00    +0.024 A 
ENDROOT
BRANCH   1  19
ATOM     17  C   UNL     1       3.171  -2.664  -2.123  0.00  0.00    +0.405 C 
ATOM     18  O   UNL     1       4.272  -2.061  -2.256  0.00  0.00    -0.226 OA
ATOM     19  N   UNL     1       2.022  -1.977  -1.611  0.00  0.00    -0.251 N 
ATOM     20  H   UNL     1       1.086  -2.387  -1.827  0.00  0.00    +0.158 HD
BRANCH  17  21
ATOM     21  O   UNL     1       3.044  -4.002  -2.514  0.00  0.00    -0.450 OA
BRANCH  21  23
ATOM     22  C   UNL     1       5.056  -5.190  -1.840  0.00  0.00    +0.048 C 
ATOM     23  C   UNL     1       4.132  -4.793  -2.989  0.00  0.00    +0.230 C 
ENDBRANCH  21  23
ENDBRANCH  17  21
ENDBRANCH   1  19
BRANCH  13  24
ATOM     24  C   UNL     1      -1.913   0.688   0.211  0.00  0.00    +0.112 C 
BRANCH  24  25
ATOM     25  C   UNL     1      -3.215   0.774   1.021  0.00  0.00    +0.094 C 
BRANCH  25  26
ATOM     26  N   UNL     1      -3.684  -0.581   1.379  0.00  0.00    -0.298 NA
ATOM     27  C   UNL     1      -5.147  -0.601   1.567  0.00  0.00    +0.112 C 
ATOM     28  C   UNL     1      -5.601  -2.015   1.949  0.00  0.00    +0.175 C 
ATOM     29  O   UNL     1      -4.959  -2.446   3.135  0.00  0.00    -0.377 OA
ATOM     30  C   UNL     1      -3.559  -2.480   2.934  0.00  0.00    +0.175 C 
ATOM     31  C   UNL     1      -3.025  -1.083   2.600  0.00  0.00    +0.112 C 
ENDBRANCH  25  26
ENDBRANCH  24  25
ENDBRANCH  13  24
TORSDOF 6
