REMARK  Name = 
REMARK  3 active torsions:
REMARK  status: ('A' for Active; 'I' for Inactive)
REMARK    1  A    between atoms: C_4  and  O_5
REMARK    2  A    between atoms: N_13  and  C_14
REMARK    3  A    between atoms: C_20  and  O_21
REMARK                            x       y       z     vdW  Elec       q    Type
REMARK                         _______ _______ _______ _____ _____    ______ ____
ROOT
ATOM      1  C   UNL     1       1.210  -1.676  -0.884  0.00  0.00    +0.217 C 
ATOM      2  O   UNL     1       2.468  -1.037  -0.628  0.00  0.00    -0.481 OA
ATOM      3  C   UNL     1       2.272   0.229  -0.119  0.00  0.00    +0.166 A 
ATOM      4  C   UNL     1       3.234   1.065   0.445  0.00  0.00    +0.159 A 
ATOM      5  C   UNL     1       2.792   2.213   1.134  0.00  0.00    +0.049 A 
ATOM      6  C   UNL     1       1.411   2.441   1.314  0.00  0.00    +0.008 A 
ATOM      7  C   UNL     1       0.470   1.572   0.729  0.00  0.00    -0.038 A 
ATOM      8  C   UNL     1       0.949   0.549  -0.095  0.00  0.00    +0.012 A 
ATOM      9  C   UNL     1       0.129  -0.537  -0.722  0.00  0.00    +0.048 C 
ATOM     10  C   UNL     1      -0.434  -0.055  -2.096  0.00  0.00    +0.031 C 
ATOM     11  C   UNL     1      -1.927   0.325  -2.042  0.00  0.00    +0.085 C 
ATOM     12  N   UNL     1      -2.256   1.095  -0.824  0.00  0.00    -0.301 NA
ATOM     13  C   UNL     1      -3.687   1.436  -0.806  0.00  0.00    +0.105 C 
ATOM     14  C   UNL     1      -1.824   0.473   0.463  0.00  0.00    +0.068 C 
ATOM     15  C   UNL     1      -0.964   1.533   1.209  0.00  0.00    +0.055 C 
ATOM     16  C   UNL     1      -1.032  -0.861   0.245  0.00  0.00    +0.043 C 
ATOM     17  C   UNL     1      -0.500  -1.482   1.518  0.00  0.00    -0.023 C 
ATOM     18  C   UNL     1       0.480  -2.394   1.443  0.00  0.00    +0.004 C 
ATOM     19  C   UNL     1       0.987  -2.859   0.093  0.00  0.00    +0.178 C 
ENDROOT
BRANCH   4  20
ATOM     20  O   UNL     1       4.587   0.747   0.358  0.00  0.00    -0.503 OA
ATOM     21  H   UNL     1       5.296   1.339   0.775  0.00  0.00    +0.292 HD
ENDBRANCH   4  20
BRANCH  19  22
ATOM     22  O   UNL     1       2.179  -3.585   0.243  0.00  0.00    -0.384 OA
ATOM     23  H   UNL     1       1.931  -4.470   0.619  0.00  0.00    +0.210 HD
ENDBRANCH  19  22
TORSDOF 2
