REMARK  Name = 
REMARK  6 active torsions:
REMARK  status: ('A' for Active; 'I' for Inactive)
REMARK    1  A    between atoms: N_3  and  C_10
REMARK    2  A    between atoms: C_17  and  C_27
REMARK    3  A    between atoms: N_19  and  C_20
REMARK    4  A    between atoms: C_24  and  O_25
REMARK    5  A    between atoms: O_25  and  C_26
REMARK    6  A    between atoms: C_27  and  O_28
REMARK                            x       y       z     vdW  Elec       q    Type
REMARK                         _______ _______ _______ _____ _____    ______ ____
ROOT
ATOM      1  C   UNL     1      -0.117   1.269   0.488  0.00  0.00    +0.110 A 
ATOM      2  C   UNL     1       0.404   2.510   0.870  0.00  0.00    +0.149 A 
ATOM      3  F   UNL     1      -0.415   3.498   1.311  0.00  0.00    -0.203 F 
ATOM      4  C   UNL     1       1.772   2.744   0.819  0.00  0.00    +0.054 A 
ATOM      5  C   UNL     1       2.664   1.728   0.433  0.00  0.00    +0.052 A 
ATOM      6  C   UNL     1       4.044   1.988   0.353  0.00  0.00    +0.204 A 
ATOM      7  O   UNL     1       4.487   3.135   0.644  0.00  0.00    -0.286 OA
ATOM      8  C   UNL     1       4.926   0.978  -0.063  0.00  0.00    +0.122 A 
ATOM      9  C   UNL     1       4.403  -0.295  -0.326  0.00  0.00    +0.105 A 
ATOM     10  N   UNL     1       3.074  -0.577  -0.169  0.00  0.00    -0.340 N 
ATOM     11  C   UNL     1       2.171   0.435   0.109  0.00  0.00    +0.097 A 
ATOM     12  C   UNL     1       0.756   0.247   0.057  0.00  0.00    +0.168 A 
ENDROOT
BRANCH   1  15
ATOM     13  C   UNL     1      -3.631   0.275   1.315  0.00  0.00    +0.025 C 
ATOM     14  C   UNL     1      -2.135  -0.029   1.346  0.00  0.00    +0.110 C 
ATOM     15  N   UNL     1      -1.534   1.038   0.559  0.00  0.00    -0.323 N 
ATOM     16  C   UNL     1      -2.527   1.864  -0.113  0.00  0.00    +0.124 C 
ATOM     17  C   UNL     1      -3.840   1.090   0.021  0.00  0.00    +0.075 C 
ATOM     18  N   UNL     1      -4.002   0.224  -1.163  0.00  0.00    -0.311 NA
ATOM     19  C   UNL     1      -5.074  -0.755  -0.979  0.00  0.00    +0.081 C 
ATOM     20  C   UNL     1      -4.695  -1.723   0.136  0.00  0.00    +0.015 C 
ATOM     21  C   UNL     1      -4.538  -0.963   1.451  0.00  0.00    +0.008 C 
ATOM     22  H   UNL     1      -4.268   0.832  -1.973  0.00  0.00    +0.122 HD
ENDBRANCH   1  15
BRANCH  10  23
ATOM     23  C   UNL     1       2.670  -1.986  -0.346  0.00  0.00    +0.088 C 
ATOM     24  C   UNL     1       2.065  -2.629   0.899  0.00  0.00    +0.027 C 
ATOM     25  C   UNL     1       3.472  -2.994   0.479  0.00  0.00    +0.027 C 
ENDBRANCH  10  23
BRANCH  12  26
ATOM     26  O   UNL     1       0.210  -0.929  -0.462  0.00  0.00    -0.491 OA
ATOM     27  C   UNL     1      -0.415  -0.969  -1.740  0.00  0.00    +0.277 C 
ENDBRANCH  12  26
BRANCH   8  28
ATOM     28  C   UNL     1       6.388   1.218  -0.213  0.00  0.00    +0.342 C 
ATOM     29  O   UNL     1       7.157   0.274  -0.540  0.00  0.00    -0.245 OA
BRANCH  28  30
ATOM     30  O   UNL     1       6.931   2.483   0.000  0.00  0.00    -0.477 OA
ATOM     31  H   UNL     1       7.925   2.647  -0.103  0.00  0.00    +0.295 HD
ENDBRANCH  28  30
ENDBRANCH   8  28
TORSDOF 5
