REMARK  Name = 
REMARK  24 active torsions:
REMARK  status: ('A' for Active; 'I' for Inactive)
REMARK    1  A    between atoms: C_1  and  C_2
REMARK    2  A    between atoms: C_2  and  O_3
REMARK    3  A    between atoms: C_2  and  C_4
REMARK    4  A    between atoms: C_4  and  C_5
REMARK    5  A    between atoms: C_4  and  C_6
REMARK    6  A    between atoms: C_8  and  C_9
REMARK    7  A    between atoms: C_9  and  C_10
REMARK    8  A    between atoms: C_13  and  C_14
REMARK    9  A    between atoms: C_14  and  C_15
REMARK   10  A    between atoms: C_15  and  C_16
REMARK   11  A    between atoms: C_17  and  C_18
REMARK   12  A    between atoms: C_18  and  O_20
REMARK   13  A    between atoms: O_20  and  C_21
REMARK   14  A    between atoms: C_21  and  C_22
REMARK   15  A    between atoms: C_22  and  C_23
REMARK   16  A    between atoms: C_23  and  C_24
REMARK   17  A    between atoms: C_24  and  C_25
REMARK   18  A    between atoms: C_25  and  C_26
REMARK   19  A    between atoms: C_26  and  C_27
REMARK   20  A    between atoms: C_27  and  C_28
REMARK   21  A    between atoms: C_28  and  C_29
REMARK   22  A    between atoms: C_29  and  O_30
REMARK   23  A    between atoms: C_32  and  O_33
REMARK   24  A    between atoms: C_34  and  O_35
REMARK                            x       y       z     vdW  Elec       q    Type
REMARK                         _______ _______ _______ _____ _____    ______ ____
ROOT
ATOM      1  C   UNL     1      -4.029   0.495   0.916  0.00  0.00    +0.048 C 
ATOM      2  C   UNL     1      -3.799   1.816   0.121  0.00  0.00    +0.166 C 
ATOM      3  O   UNL     1      -2.458   2.277   0.165  0.00  0.00    -0.373 OA
ATOM      4  C   UNL     1      -1.560   1.232  -0.160  0.00  0.00    +0.153 C 
ATOM      5  C   UNL     1      -1.490   0.218   1.018  0.00  0.00    +0.172 C 
ATOM      6  C   UNL     1      -2.813   0.210   1.832  0.00  0.00    +0.151 C 
ENDROOT
BRANCH   5   7
ATOM      7  O   UNL     1      -1.159  -1.065   0.543  0.00  0.00    -0.387 OA
ATOM      8  H   UNL     1      -1.889  -1.364  -0.058  0.00  0.00    +0.210 HD
ENDBRANCH   5   7
BRANCH   6   9
ATOM      9  O   UNL     1      -2.957  -0.987   2.560  0.00  0.00    -0.389 OA
ATOM     10  H   UNL     1      -3.218  -1.704   1.925  0.00  0.00    +0.210 HD
ENDBRANCH   6   9
BRANCH   1  11
ATOM     11  C   UNL     1      -5.348   0.538   1.720  0.00  0.00    +0.042 C 
BRANCH  11  14
ATOM     12  C   UNL     1      -7.825   1.085   1.364  0.00  0.00    +0.153 C 
ATOM     13  O   UNL     1      -7.013   1.870   0.515  0.00  0.00    -0.368 OA
ATOM     14  C   UNL     1      -6.561   0.560   0.783  0.00  0.00    +0.148 C 
BRANCH  12  15
ATOM     15  C   UNL     1      -9.151   0.593   0.725  0.00  0.00    +0.046 C 
ATOM     16  C   UNL     1      -9.265   0.924  -0.778  0.00  0.00    +0.013 C 
BRANCH  15  18
ATOM     17  C   UNL     1     -10.785  -1.382   0.702  0.00  0.00    +0.038 C 
ATOM     18  C   UNL     1      -9.354  -0.920   1.010  0.00  0.00    +0.117 C 
BRANCH  18  19
ATOM     19  O   UNL     1      -9.082  -1.182   2.366  0.00  0.00    -0.392 OA
ATOM     20  H   UNL     1      -8.858  -2.147   2.438  0.00  0.00    +0.210 HD
ENDBRANCH  18  19
ENDBRANCH  15  18
ENDBRANCH  12  15
ENDBRANCH  11  14
ENDBRANCH   1  11
BRANCH   4  21
ATOM     21  C   UNL     1      -0.185   1.856  -0.461  0.00  0.00    +0.065 C 
BRANCH  21  22
ATOM     22  C   UNL     1       0.818   0.845  -0.975  0.00  0.00    -0.063 C 
ATOM     23  C   UNL     1       1.935   0.405  -0.064  0.00  0.00    +0.039 C 
ATOM     24  C   UNL     1       0.677   0.367  -2.229  0.00  0.00    +0.090 C 
BRANCH  24  25
ATOM     25  C   UNL     1       1.605  -0.562  -2.906  0.00  0.00    +0.332 C 
ATOM     26  O   UNL     1       1.210  -1.176  -3.934  0.00  0.00    -0.246 OA
BRANCH  25  27
ATOM     27  O   UNL     1       2.923  -0.711  -2.465  0.00  0.00    -0.462 OA
BRANCH  27  28
ATOM     28  C   UNL     1       3.885  -1.520  -3.135  0.00  0.00    +0.232 C 
BRANCH  28  29
ATOM     29  C   UNL     1       5.271  -1.262  -2.544  0.00  0.00    +0.041 C 
BRANCH  29  30
ATOM     30  C   UNL     1       5.395  -1.814  -1.111  0.00  0.00    +0.003 C 
BRANCH  30  31
ATOM     31  C   UNL     1       6.584  -1.207  -0.348  0.00  0.00    +0.000 C 
BRANCH  31  32
ATOM     32  C   UNL     1       7.940  -1.557  -0.988  0.00  0.00    +0.000 C 
BRANCH  32  33
ATOM     33  C   UNL     1       9.132  -1.094  -0.135  0.00  0.00    +0.001 C 
BRANCH  33  34
ATOM     34  C   UNL     1       9.259   0.438  -0.081  0.00  0.00    +0.011 C 
BRANCH  34  35
ATOM     35  C   UNL     1      10.572   0.890   0.574  0.00  0.00    +0.120 C 
BRANCH  35  36
ATOM     36  C   UNL     1      10.633   0.531   2.028  0.00  0.00    +0.305 C 
ATOM     37  O   UNL     1      11.632  -0.090   2.484  0.00  0.00    -0.251 OA
BRANCH  36  38
ATOM     38  O   UNL     1       9.610   0.924   2.887  0.00  0.00    -0.481 OA
ATOM     39  H   UNL     1       9.650   0.706   3.876  0.00  0.00    +0.295 HD
ENDBRANCH  36  38
ENDBRANCH  35  36
ENDBRANCH  34  35
ENDBRANCH  33  34
ENDBRANCH  32  33
ENDBRANCH  31  32
ENDBRANCH  30  31
ENDBRANCH  29  30
ENDBRANCH  28  29
ENDBRANCH  27  28
ENDBRANCH  25  27
ENDBRANCH  24  25
ENDBRANCH  21  22
ENDBRANCH   4  21
TORSDOF 21
