REMARK  Name = 
REMARK  14 active torsions:
REMARK  status: ('A' for Active; 'I' for Inactive)
REMARK    1  A    between atoms: C_1  and  O_2
REMARK    2  A    between atoms: O_2  and  C_3
REMARK    3  A    between atoms: C_4  and  C_5
REMARK    4  A    between atoms: C_5  and  C_6
REMARK    5  A    between atoms: C_7  and  C_8
REMARK    6  A    between atoms: C_7  and  C_9
REMARK    7  A    between atoms: C_9  and  C_10
REMARK    8  A    between atoms: C_10  and  C_11
REMARK    9  A    between atoms: C_11  and  O_13
REMARK   10  A    between atoms: O_13  and  C_14
REMARK   11  A    between atoms: C_14  and  C_15
REMARK   12  A    between atoms: C_15  and  N_16
REMARK   13  A    between atoms: C_22  and  O_23
REMARK   14  A    between atoms: C_30  and  C_31
REMARK                            x       y       z     vdW  Elec       q    Type
REMARK                         _______ _______ _______ _____ _____    ______ ____
ROOT
ATOM      1  C   UNL     1      -2.859  -0.997   1.689  0.00  0.00    +0.069 C 
ENDROOT
BRANCH   1   3
ATOM      2  C   UNL     1      -3.811   0.967   0.374  0.00  0.00    +0.130 A 
ATOM      3  C   UNL     1      -3.585  -0.437   0.484  0.00  0.00    +0.040 A 
ATOM      4  C   UNL     1      -4.011  -1.296  -0.566  0.00  0.00    +0.138 A 
ATOM      5  C   UNL     1      -4.659  -0.725  -1.659  0.00  0.00    +0.107 A 
ATOM      6  C   UNL     1      -5.205  -1.331  -2.848  0.00  0.00    +0.343 C 
ATOM      7  O   UNL     1      -5.200  -2.560  -3.124  0.00  0.00    -0.245 OA
ATOM      8  O   UNL     1      -5.748  -0.351  -3.665  0.00  0.00    -0.456 OA
ATOM      9  C   UNL     1      -5.581   0.935  -3.063  0.00  0.00    +0.269 C 
ATOM     10  C   UNL     1      -4.873   0.626  -1.770  0.00  0.00    +0.014 A 
ATOM     11  C   UNL     1      -4.439   1.511  -0.775  0.00  0.00    -0.001 A 
ATOM     12  C   UNL     1      -4.686   2.990  -0.912  0.00  0.00    +0.048 C 
BRANCH   2  14
ATOM     13  C   UNL     1      -4.296   2.280   2.398  0.00  0.00    +0.277 C 
ATOM     14  O   UNL     1      -3.392   1.818   1.403  0.00  0.00    -0.494 OA
ENDBRANCH   2  14
BRANCH   4  15
ATOM     15  O   UNL     1      -3.800  -2.677  -0.548  0.00  0.00    -0.506 OA
ATOM     16  H   UNL     1      -3.307  -3.157   0.193  0.00  0.00    +0.292 HD
ENDBRANCH   4  15
ENDBRANCH   1   3
BRANCH   1  17
ATOM     17  C   UNL     1      -1.430  -1.336   1.343  0.00  0.00    -0.023 C 
ATOM     18  C   UNL     1      -0.545  -1.822   2.240  0.00  0.00    -0.076 C 
ATOM     19  C   UNL     1      -0.939  -2.075   3.676  0.00  0.00    +0.039 C 
BRANCH  18  20
ATOM     20  C   UNL     1       0.861  -2.152   1.784  0.00  0.00    +0.041 C 
BRANCH  20  21
ATOM     21  C   UNL     1       1.663  -0.877   1.494  0.00  0.00    +0.125 C 
BRANCH  21  22
ATOM     22  C   UNL     1       3.044  -1.217   1.027  0.00  0.00    +0.307 C 
ATOM     23  O   UNL     1       4.043  -0.821   1.686  0.00  0.00    -0.251 OA
BRANCH  22  24
ATOM     24  O   UNL     1       3.208  -1.976  -0.137  0.00  0.00    -0.463 OA
BRANCH  24  25
ATOM     25  C   UNL     1       4.473  -2.228  -0.747  0.00  0.00    +0.247 C 
BRANCH  25  26
ATOM     26  C   UNL     1       4.796  -1.143  -1.777  0.00  0.00    +0.125 C 
BRANCH  26  27
ATOM     27  N   UNL     1       4.860   0.190  -1.142  0.00  0.00    -0.295 NA
ATOM     28  C   UNL     1       4.535   1.248  -2.119  0.00  0.00    +0.112 C 
ATOM     29  C   UNL     1       4.647   2.625  -1.450  0.00  0.00    +0.175 C 
ATOM     30  O   UNL     1       5.947   2.828  -0.931  0.00  0.00    -0.377 OA
ATOM     31  C   UNL     1       6.229   1.848   0.050  0.00  0.00    +0.175 C 
ATOM     32  C   UNL     1       6.195   0.444  -0.565  0.00  0.00    +0.112 C 
ENDBRANCH  26  27
ENDBRANCH  25  26
ENDBRANCH  24  25
ENDBRANCH  22  24
ENDBRANCH  21  22
ENDBRANCH  20  21
ENDBRANCH  18  20
ENDBRANCH   1  17
TORSDOF 11
