REMARK  Name = 
REMARK  11 active torsions:
REMARK  status: ('A' for Active; 'I' for Inactive)
REMARK    1  A    between atoms: C_1  and  O_2
REMARK    2  A    between atoms: O_2  and  C_3
REMARK    3  A    between atoms: C_4  and  C_5
REMARK    4  A    between atoms: C_5  and  C_6
REMARK    5  A    between atoms: C_7  and  C_8
REMARK    6  A    between atoms: C_7  and  C_9
REMARK    7  A    between atoms: C_9  and  C_10
REMARK    8  A    between atoms: C_10  and  C_11
REMARK    9  A    between atoms: C_11  and  O_12
REMARK   10  A    between atoms: C_14  and  O_15
REMARK   11  A    between atoms: C_22  and  C_23
REMARK                            x       y       z     vdW  Elec       q    Type
REMARK                         _______ _______ _______ _____ _____    ______ ____
ROOT
ATOM      1  C   UNL     1      -1.268   0.810   0.073  0.00  0.00    +0.130 A 
ATOM      2  C   UNL     1      -1.126  -0.595   0.234  0.00  0.00    +0.040 A 
ATOM      3  C   UNL     1      -1.999  -1.476  -0.446  0.00  0.00    +0.138 A 
ATOM      4  C   UNL     1      -3.010  -0.921  -1.241  0.00  0.00    +0.107 A 
ATOM      5  C   UNL     1      -4.064  -1.529  -2.027  0.00  0.00    +0.343 C 
ATOM      6  O   UNL     1      -4.293  -2.760  -2.148  0.00  0.00    -0.245 OA
ATOM      7  O   UNL     1      -4.818  -0.543  -2.643  0.00  0.00    -0.456 OA
ATOM      8  C   UNL     1      -4.307   0.748  -2.309  0.00  0.00    +0.269 C 
ATOM      9  C   UNL     1      -3.148   0.440  -1.400  0.00  0.00    +0.014 A 
ATOM     10  C   UNL     1      -2.274   1.338  -0.773  0.00  0.00    -0.001 A 
ATOM     11  C   UNL     1      -2.436   2.821  -0.972  0.00  0.00    +0.048 C 
ENDROOT
BRANCH   1  13
ATOM     12  C   UNL     1      -0.762   2.347   1.932  0.00  0.00    +0.277 C 
ATOM     13  O   UNL     1      -0.386   1.668   0.740  0.00  0.00    -0.494 OA
ENDBRANCH   1  13
BRANCH   3  14
ATOM     14  O   UNL     1      -1.840  -2.858  -0.318  0.00  0.00    -0.506 OA
ATOM     15  H   UNL     1      -2.430  -3.526  -0.793  0.00  0.00    +0.292 HD
ENDBRANCH   3  14
BRANCH   2  16
ATOM     16  C   UNL     1      -0.003  -1.144   1.086  0.00  0.00    +0.069 C 
BRANCH  16  17
ATOM     17  C   UNL     1       1.291  -1.163   0.312  0.00  0.00    -0.023 C 
ATOM     18  C   UNL     1       2.475  -1.515   0.860  0.00  0.00    -0.076 C 
ATOM     19  C   UNL     1       2.574  -1.951   2.303  0.00  0.00    +0.039 C 
BRANCH  18  20
ATOM     20  C   UNL     1       3.728  -1.473   0.008  0.00  0.00    +0.041 C 
BRANCH  20  21
ATOM     21  C   UNL     1       4.160  -0.035  -0.310  0.00  0.00    +0.125 C 
BRANCH  21  22
ATOM     22  C   UNL     1       4.519   0.718   0.934  0.00  0.00    +0.305 C 
ATOM     23  O   UNL     1       5.676   0.615   1.423  0.00  0.00    -0.251 OA
BRANCH  22  24
ATOM     24  O   UNL     1       3.559   1.498   1.573  0.00  0.00    -0.481 OA
ATOM     25  H   UNL     1       3.779   1.997   2.426  0.00  0.00    +0.295 HD
ENDBRANCH  22  24
ENDBRANCH  21  22
ENDBRANCH  20  21
ENDBRANCH  18  20
ENDBRANCH  16  17
ENDBRANCH   2  16
TORSDOF 8
