REMARK  Name = 
REMARK  11 active torsions:
REMARK  status: ('A' for Active; 'I' for Inactive)
REMARK    1  A    between atoms: C_1  and  CA_3
REMARK    2  A    between atoms: CA_3  and  N_4
REMARK    3  A    between atoms: CA_3  and  C_8
REMARK    4  A    between atoms: C_5  and  C_6
REMARK    5  A    between atoms: C_8  and  O_9
REMARK    6  A    between atoms: C_8  and  C_10
REMARK    7  A    between atoms: C_10  and  O_11
REMARK    8  A    between atoms: C_10  and  C_12
REMARK    9  A    between atoms: C_12  and  O_13
REMARK   10  A    between atoms: C_12  and  C_14
REMARK   11  A    between atoms: C_14  and  O_15
REMARK                            x       y       z     vdW  Elec       q    Type
REMARK                         _______ _______ _______ _____ _____    ______ ____
ROOT
ATOM      1  C   UNL     1      -0.079  -0.125   0.102  0.00  0.00    +0.173 C 
ENDROOT
BRANCH   1   2
ATOM      2  O   UNL     1       0.212   1.158  -0.395  0.00  0.00    -0.387 OA
ATOM      3  H   UNL     1       0.374   1.072  -1.371  0.00  0.00    +0.210 HD
ENDBRANCH   1   2
BRANCH   1   4
ATOM      4  CA  UNL     1       1.128  -1.074  -0.132  0.00  0.00    +0.167 C 
BRANCH   4   5
ATOM      5  N   UNL     1       2.347  -0.447   0.385  0.00  0.00    -0.304 N 
ATOM      6  C   UNL     1       3.321   0.185  -0.459  0.00  0.00    +0.211 C 
ATOM      7  C   UNL     1       4.493   0.882   0.151  0.00  0.00    +0.109 C 
ATOM      8  O   UNL     1       3.184   0.183  -1.712  0.00  0.00    -0.276 OA
ATOM      9  H   UNL     1       2.458  -0.355   1.421  0.00  0.00    +0.149 HD
ENDBRANCH   4   5
BRANCH   4  10
ATOM     10  C   UNL     1       0.947  -2.393   0.569  0.00  0.00    +0.248 C 
ATOM     11  O   UNL     1       0.296  -3.291   0.059  0.00  0.00    -0.299 OA
ENDBRANCH   4  10
ENDBRANCH   1   4
BRANCH   1  12
ATOM     12  C   UNL     1      -1.411  -0.662  -0.500  0.00  0.00    +0.176 C 
BRANCH  12  13
ATOM     13  O   UNL     1      -1.237  -0.923  -1.871  0.00  0.00    -0.387 OA
ATOM     14  H   UNL     1      -1.948  -1.564  -2.138  0.00  0.00    +0.210 HD
ENDBRANCH  12  13
BRANCH  12  15
ATOM     15  C   UNL     1      -2.620   0.290  -0.308  0.00  0.00    +0.171 C 
BRANCH  15  16
ATOM     16  O   UNL     1      -2.418   1.482  -1.024  0.00  0.00    -0.387 OA
ATOM     17  H   UNL     1      -3.312   1.889  -1.170  0.00  0.00    +0.210 HD
ENDBRANCH  15  16
BRANCH  15  18
ATOM     18  C   UNL     1      -2.899   0.601   1.172  0.00  0.00    +0.189 C 
BRANCH  18  19
ATOM     19  O   UNL     1      -4.147   1.223   1.297  0.00  0.00    -0.392 OA
ATOM     20  H   UNL     1      -4.272   1.398   2.266  0.00  0.00    +0.210 HD
ENDBRANCH  18  19
ENDBRANCH  15  18
ENDBRANCH  12  15
ENDBRANCH   1  12
TORSDOF 10
