REMARK  Name = 
REMARK  12 active torsions:
REMARK  status: ('A' for Active; 'I' for Inactive)
REMARK    1  A    between atoms: C_8  and  C_9
REMARK    2  A    between atoms: C_8  and  C_10
REMARK    3  A    between atoms: C_14  and  C_19
REMARK    4  A    between atoms: C_16  and  O_17
REMARK    5  A    between atoms: C_19  and  C_20
REMARK    6  A    between atoms: C_19  and  C_21
REMARK    7  A    between atoms: C_19  and  C_22
REMARK    8  A    between atoms: C_22  and  C_23
REMARK    9  A    between atoms: C_23  and  C_24
REMARK   10  A    between atoms: C_24  and  C_25
REMARK   11  A    between atoms: C_25  and  C_26
REMARK   12  A    between atoms: C_26  and  C_27
REMARK                            x       y       z     vdW  Elec       q    Type
REMARK                         _______ _______ _______ _____ _____    ______ ____
ROOT
ATOM      1  C   UNL     1      -3.863  -0.702   0.424  0.00  0.00    +0.040 C 
ATOM      2  C   UNL     1      -4.450  -2.050  -0.083  0.00  0.00    +0.083 C 
ATOM      3  C   UNL     1      -5.910  -2.048  -0.440  0.00  0.00    +0.134 C 
ATOM      4  O   UNL     1      -6.479  -3.125  -0.563  0.00  0.00    -0.297 OA
ATOM      5  C   UNL     1      -6.687  -0.791  -0.729  0.00  0.00    +0.075 C 
ATOM      6  C   UNL     1      -6.010   0.482  -0.213  0.00  0.00    +0.015 C 
ATOM      7  C   UNL     1      -4.470   0.480  -0.378  0.00  0.00    +0.041 C 
ATOM      8  C   UNL     1      -3.831   1.885  -0.027  0.00  0.00    +0.108 C 
ATOM      9  C   UNL     1      -3.794   2.770  -1.298  0.00  0.00    +0.055 C 
ATOM     10  C   UNL     1      -4.593   2.649   1.085  0.00  0.00    +0.055 C 
ATOM     11  O   UNL     1      -2.472   1.774   0.426  0.00  0.00    -0.486 OA
ATOM     12  C   UNL     1      -1.717   0.603   0.443  0.00  0.00    +0.128 A 
ATOM     13  C   UNL     1      -0.327   0.743   0.553  0.00  0.00    +0.050 A 
ATOM     14  C   UNL     1       0.525  -0.374   0.630  0.00  0.00    -0.035 A 
ATOM     15  C   UNL     1      -0.079  -1.646   0.554  0.00  0.00    +0.050 A 
ATOM     16  C   UNL     1      -1.473  -1.809   0.469  0.00  0.00    +0.124 A 
ATOM     17  C   UNL     1      -2.324  -0.664   0.392  0.00  0.00    +0.040 A 
ENDROOT
BRANCH  14  18
ATOM     18  C   UNL     1       2.069  -0.258   0.761  0.00  0.00    -0.010 C 
ATOM     19  C   UNL     1       2.511   1.189   1.094  0.00  0.00    +0.016 C 
ATOM     20  C   UNL     1       2.549  -1.173   1.926  0.00  0.00    +0.016 C 
BRANCH  18  21
ATOM     21  C   UNL     1       2.694  -0.716  -0.598  0.00  0.00    +0.011 C 
BRANCH  21  22
ATOM     22  C   UNL     1       4.239  -0.683  -0.705  0.00  0.00    +0.001 C 
BRANCH  22  23
ATOM     23  C   UNL     1       4.773   0.620  -1.343  0.00  0.00    +0.000 C 
BRANCH  23  24
ATOM     24  C   UNL     1       6.288   0.573  -1.623  0.00  0.00    -0.000 C 
BRANCH  24  25
ATOM     25  C   UNL     1       7.140   0.492  -0.339  0.00  0.00    -0.003 C 
ATOM     26  C   UNL     1       7.839  -0.858  -0.198  0.00  0.00    +0.004 C 
ENDBRANCH  24  25
ENDBRANCH  23  24
ENDBRANCH  22  23
ENDBRANCH  21  22
ENDBRANCH  18  21
ENDBRANCH  14  18
BRANCH  16  27
ATOM     27  O   UNL     1      -1.978  -3.116   0.424  0.00  0.00    -0.506 OA
ATOM     28  H   UNL     1      -1.376  -3.932   0.496  0.00  0.00    +0.292 HD
ENDBRANCH  16  27
TORSDOF 7
