REMARK  Name = 
REMARK  6 active torsions:
REMARK  status: ('A' for Active; 'I' for Inactive)
REMARK    1  A    between atoms: C_1  and  O_2
REMARK    2  A    between atoms: O_2  and  C_3
REMARK    3  A    between atoms: C_10  and  C_11
REMARK    4  A    between atoms: C_11  and  C_12
REMARK    5  A    between atoms: C_12  and  C_13
REMARK    6  A    between atoms: C_13  and  C_14
REMARK                            x       y       z     vdW  Elec       q    Type
REMARK                         _______ _______ _______ _____ _____    ______ ____
ROOT
ATOM      1  C   UNL     1       3.890  -0.270   0.139  0.00  0.00    +0.121 A 
ATOM      2  C   UNL     1       2.956   0.776   0.269  0.00  0.00    +0.054 A 
ATOM      3  C   UNL     1       1.585   0.493   0.373  0.00  0.00    -0.014 A 
ATOM      4  C   UNL     1       1.141  -0.850   0.348  0.00  0.00    -0.017 A 
ATOM      5  C   UNL     1       2.076  -1.886   0.217  0.00  0.00    +0.012 A 
ATOM      6  C   UNL     1       3.439  -1.594   0.114  0.00  0.00    +0.046 A 
ATOM      7  C   UNL     1      -0.229  -1.133   0.451  0.00  0.00    +0.012 A 
ATOM      8  C   UNL     1      -1.161  -0.091   0.589  0.00  0.00    -0.046 A 
ATOM      9  C   UNL     1      -0.714   1.239   0.600  0.00  0.00    +0.004 A 
ATOM     10  C   UNL     1       0.648   1.530   0.498  0.00  0.00    +0.009 A 
ENDROOT
BRANCH   1  12
ATOM     11  C   UNL     1       5.872   1.254   0.042  0.00  0.00    +0.277 C 
ATOM     12  O   UNL     1       5.270  -0.037   0.032  0.00  0.00    -0.495 OA
ENDBRANCH   1  12
BRANCH   8  13
ATOM     13  C   UNL     1      -2.633  -0.397   0.664  0.00  0.00    +0.042 C 
BRANCH  13  14
ATOM     14  C   UNL     1      -3.243  -0.450  -0.740  0.00  0.00    +0.078 C 
BRANCH  14  15
ATOM     15  C   UNL     1      -4.718  -0.734  -0.671  0.00  0.00    +0.131 C 
ATOM     16  C   UNL     1      -5.712   0.297  -1.113  0.00  0.00    +0.086 C 
ATOM     17  O   UNL     1      -5.109  -1.821  -0.270  0.00  0.00    -0.298 OA
ENDBRANCH  14  15
ENDBRANCH  13  14
ENDBRANCH   8  13
TORSDOF 4
