REMARK  Name = 
REMARK  18 active torsions:
REMARK  status: ('A' for Active; 'I' for Inactive)
REMARK    1  A    between atoms: C_2  and  C_4
REMARK    2  A    between atoms: N_6  and  C_10
REMARK    3  A    between atoms: C_12  and  C_13
REMARK    4  A    between atoms: C_13  and  O_14
REMARK    5  A    between atoms: O_14  and  P_15
REMARK    6  A    between atoms: P_15  and  O_16
REMARK    7  A    between atoms: P_15  and  O_18
REMARK    8  A    between atoms: O_18  and  P_19
REMARK    9  A    between atoms: P_19  and  O_20
REMARK   10  A    between atoms: P_19  and  O_22
REMARK   11  A    between atoms: O_22  and  C_23
REMARK   12  A    between atoms: C_23  and  C_24
REMARK   13  A    between atoms: C_26  and  N_31
REMARK   14  A    between atoms: C_27  and  O_28
REMARK   15  A    between atoms: C_29  and  O_30
REMARK   16  A    between atoms: C_35  and  N_36
REMARK   17  A    between atoms: C_41  and  O_42
REMARK   18  A    between atoms: C_43  and  O_44
REMARK                            x       y       z     vdW  Elec       q    Type
REMARK                         _______ _______ _______ _____ _____    ______ ____
ROOT
ATOM      1  O   UNL     1       0.473  -0.262   0.016  0.00  0.00    -0.186 OA
ENDROOT
BRANCH   1   2
ATOM      2  P   UNL     1      -0.762  -0.964   0.952  0.00  0.00    +0.483 P 
ATOM      3  O   UNL     1      -0.226  -1.273   2.333  0.00  0.00    -0.227 OA
BRANCH   2   4
ATOM      4  O   UNL     1      -1.229  -2.412   0.207  0.00  0.00    -0.302 OA
ATOM      5  H   UNL     1      -1.520  -2.146  -0.701  0.00  0.00    +0.222 HD
ENDBRANCH   2   4
BRANCH   2   6
ATOM      6  O   UNL     1      -2.110   0.082   1.072  0.00  0.00    -0.284 OA
BRANCH   6   7
ATOM      7  C   UNL     1      -3.158  -0.605   1.713  0.00  0.00    +0.206 C 
BRANCH   7  10
ATOM      8  C   UNL     1      -6.154   1.187   0.914  0.00  0.00    +0.241 C 
ATOM      9  O   UNL     1      -4.786   0.882   0.739  0.00  0.00    -0.348 OA
ATOM     10  C   UNL     1      -4.313   0.369   1.963  0.00  0.00    +0.178 C 
ATOM     11  C   UNL     1      -5.484  -0.297   2.675  0.00  0.00    +0.178 C 
ATOM     12  C   UNL     1      -6.665   0.527   2.207  0.00  0.00    +0.193 C 
BRANCH   8  15
ATOM     13  C   UNL     1      -7.448  -1.098  -1.776  0.00  0.00    +0.032 C 
ATOM     14  C   UNL     1      -6.723  -0.620  -0.749  0.00  0.00    +0.086 C 
ATOM     15  N   UNL     1      -6.920   0.715  -0.247  0.00  0.00    -0.285 N 
ATOM     16  C   UNL     1      -7.947   1.548  -0.805  0.00  0.00    +0.073 C 
ATOM     17  C   UNL     1      -8.683   1.126  -1.831  0.00  0.00    -0.007 C 
ATOM     18  C   UNL     1      -8.483  -0.226  -2.461  0.00  0.00    +0.070 C 
BRANCH  13  20
ATOM     19  N   UNL     1      -7.940  -3.007  -3.391  0.00  0.00    -0.326 N 
ATOM     20  C   UNL     1      -7.233  -2.491  -2.257  0.00  0.00    +0.239 C 
ATOM     21  O   UNL     1      -6.415  -3.244  -1.663  0.00  0.00    -0.271 OA
ATOM     22  H   UNL     1      -8.581  -2.416  -3.963  0.00  0.00    +0.145 HD
ATOM     23  H   UNL     1      -7.790  -3.997  -3.690  0.00  0.00    +0.145 HD
ENDBRANCH  13  20
ENDBRANCH   8  15
BRANCH  11  24
ATOM     24  O   UNL     1      -5.338  -0.255   4.072  0.00  0.00    -0.386 OA
ATOM     25  H   UNL     1      -4.700  -0.977   4.311  0.00  0.00    +0.210 HD
ENDBRANCH  11  24
BRANCH  12  26
ATOM     26  O   UNL     1      -7.058   1.493   3.156  0.00  0.00    -0.385 OA
ATOM     27  H   UNL     1      -6.278   2.082   3.339  0.00  0.00    +0.210 HD
ENDBRANCH  12  26
ENDBRANCH   7  10
ENDBRANCH   6   7
ENDBRANCH   2   6
ENDBRANCH   1   2
BRANCH   1  28
ATOM     28  P   UNL     1       0.605   1.375   0.473  0.00  0.00    +0.483 P 
ATOM     29  O   UNL     1      -0.510   2.165  -0.175  0.00  0.00    -0.227 OA
BRANCH  28  30
ATOM     30  O   UNL     1       0.513   1.557   2.157  0.00  0.00    -0.302 OA
ATOM     31  H   UNL     1       0.480   2.535   2.305  0.00  0.00    +0.222 HD
ENDBRANCH  28  30
BRANCH  28  32
ATOM     32  O   UNL     1       2.093   1.994  -0.080  0.00  0.00    -0.284 OA
BRANCH  32  33
ATOM     33  C   UNL     1       3.130   1.266   0.534  0.00  0.00    +0.206 C 
BRANCH  33  34
ATOM     34  C   UNL     1       4.482   1.845   0.103  0.00  0.00    +0.178 C 
ATOM     35  O   UNL     1       5.522   1.189   0.790  0.00  0.00    -0.346 OA
ATOM     36  C   UNL     1       6.668   1.246  -0.034  0.00  0.00    +0.253 C 
ATOM     37  C   UNL     1       6.253   1.665  -1.455  0.00  0.00    +0.195 C 
ATOM     38  C   UNL     1       4.738   1.684  -1.388  0.00  0.00    +0.178 C 
BRANCH  36  39
ATOM     39  N   UNL     1       7.320  -0.063  -0.055  0.00  0.00    -0.286 N 
ATOM     40  C   UNL     1       6.740  -1.283  -0.201  0.00  0.00    +0.203 A 
ATOM     41  N   UNL     1       7.640  -2.303  -0.285  0.00  0.00    -0.231 NA
ATOM     42  C   UNL     1       8.822  -1.663  -0.195  0.00  0.00    +0.147 A 
ATOM     43  C   UNL     1      10.112  -2.179  -0.239  0.00  0.00    +0.147 A 
ATOM     44  N   UNL     1      11.150  -1.295  -0.151  0.00  0.00    -0.219 NA
ATOM     45  C   UNL     1      10.932   0.054  -0.028  0.00  0.00    +0.225 A 
ATOM     46  N   UNL     1       9.659   0.550   0.012  0.00  0.00    -0.216 NA
ATOM     47  C   UNL     1       8.632  -0.330  -0.069  0.00  0.00    +0.167 A 
BRANCH  43  48
ATOM     48  N   UNL     1      10.356  -3.578  -0.384  0.00  0.00    -0.341 N 
ATOM     49  H   UNL     1      11.335  -3.937  -0.417  0.00  0.00    +0.144 HD
ATOM     50  H   UNL     1       9.568  -4.246  -0.526  0.00  0.00    +0.144 HD
ENDBRANCH  43  48
ENDBRANCH  36  39
BRANCH  37  51
ATOM     51  O   UNL     1       6.793   2.924  -1.794  0.00  0.00    -0.385 OA
ATOM     52  H   UNL     1       6.480   3.586  -1.123  0.00  0.00    +0.210 HD
ENDBRANCH  37  51
BRANCH  38  53
ATOM     53  O   UNL     1       4.178   2.747  -2.115  0.00  0.00    -0.386 OA
ATOM     54  H   UNL     1       4.260   2.502  -3.073  0.00  0.00    +0.210 HD
ENDBRANCH  38  53
ENDBRANCH  33  34
ENDBRANCH  32  33
ENDBRANCH  28  32
ENDBRANCH   1  28
TORSDOF 18
