REMARK  Name = 
REMARK  12 active torsions:
REMARK  status: ('A' for Active; 'I' for Inactive)
REMARK    1  A    between atoms: C_1  and  C_2
REMARK    2  A    between atoms: C_2  and  C_3
REMARK    3  A    between atoms: C_2  and  C_4
REMARK    4  A    between atoms: C_2  and  N_5
REMARK    5  A    between atoms: N_5  and  C_6
REMARK    6  A    between atoms: C_6  and  C_7
REMARK    7  A    between atoms: C_7  and  O_8
REMARK    8  A    between atoms: C_7  and  C_9
REMARK    9  A    between atoms: C_9  and  O_10
REMARK   10  A    between atoms: O_10  and  C_11
REMARK   11  A    between atoms: C_18  and  O_19
REMARK   12  A    between atoms: C_20  and  O_21
REMARK                            x       y       z     vdW  Elec       q    Type
REMARK                         _______ _______ _______ _____ _____    ______ ____
ROOT
ATOM      1  C   UNL     1      -1.722  -0.140  -0.773  0.00  0.00    +0.124 A 
ATOM      2  C   UNL     1      -1.566  -1.462  -1.233  0.00  0.00    +0.046 A 
ATOM      3  C   UNL     1      -2.675  -2.286  -1.405  0.00  0.00    +0.004 A 
ATOM      4  C   UNL     1      -3.954  -1.807  -1.132  0.00  0.00    +0.004 A 
ATOM      5  C   UNL     1      -4.143  -0.491  -0.689  0.00  0.00    -0.038 A 
ATOM      6  C   UNL     1      -3.016   0.345  -0.479  0.00  0.00    +0.000 A 
ATOM      7  C   UNL     1      -3.178   1.786  -0.037  0.00  0.00    +0.073 C 
ATOM      8  C   UNL     1      -4.556   2.094   0.580  0.00  0.00    +0.148 C 
ATOM      9  C   UNL     1      -5.683   1.483  -0.266  0.00  0.00    +0.148 C 
ATOM     10  C   UNL     1      -5.546  -0.044  -0.350  0.00  0.00    +0.069 C 
ENDROOT
BRANCH   8  11
ATOM     11  O   UNL     1      -4.633   1.675   1.923  0.00  0.00    -0.389 OA
ATOM     12  H   UNL     1      -4.289   0.746   1.981  0.00  0.00    +0.210 HD
ENDBRANCH   8  11
BRANCH   9  13
ATOM     13  O   UNL     1      -6.925   1.825   0.294  0.00  0.00    -0.389 OA
ATOM     14  H   UNL     1      -7.611   1.650  -0.403  0.00  0.00    +0.210 HD
ENDBRANCH   9  13
BRANCH   1  15
ATOM     15  O   UNL     1      -0.624   0.726  -0.607  0.00  0.00    -0.489 OA
BRANCH  15  16
ATOM     16  C   UNL     1       0.752   0.367  -0.737  0.00  0.00    +0.261 C 
BRANCH  16  17
ATOM     17  C   UNL     1       1.226  -0.429   0.495  0.00  0.00    +0.166 C 
BRANCH  17  18
ATOM     18  O   UNL     1       1.120   0.343   1.665  0.00  0.00    -0.387 OA
ATOM     19  H   UNL     1       1.682   1.153   1.548  0.00  0.00    +0.210 HD
ENDBRANCH  17  18
BRANCH  17  20
ATOM     20  C   UNL     1       2.652  -0.985   0.330  0.00  0.00    +0.116 C 
BRANCH  20  21
ATOM     21  N   UNL     1       3.631   0.105   0.154  0.00  0.00    -0.309 NA
ATOM     22  H   UNL     1       3.576   0.410  -0.847  0.00  0.00    +0.123 HD
BRANCH  21  24
ATOM     23  C   UNL     1       5.227  -0.435   1.987  0.00  0.00    +0.027 C 
ATOM     24  C   UNL     1       5.039  -0.252   0.464  0.00  0.00    +0.011 C 
ATOM     25  C   UNL     1       5.489  -1.528  -0.284  0.00  0.00    +0.027 C 
ATOM     26  C   UNL     1       5.939   0.919   0.016  0.00  0.00    +0.027 C 
ENDBRANCH  21  24
ENDBRANCH  20  21
ENDBRANCH  17  20
ENDBRANCH  16  17
ENDBRANCH  15  16
ENDBRANCH   1  15
TORSDOF 9
