REMARK  Name = 
REMARK  37 active torsions:
REMARK  status: ('A' for Active; 'I' for Inactive)
REMARK    1  A    between atoms: C_1  and  C_2
REMARK    2  A    between atoms: C_2  and  C_3
REMARK    3  A    between atoms: C_2  and  C_4
REMARK    4  A    between atoms: C_4  and  C_5
REMARK    5  A    between atoms: C_5  and  N_6
REMARK    6  A    between atoms: C_5  and  C_72
REMARK    7  A    between atoms: C_7  and  C_9
REMARK    8  A    between atoms: C_9  and  C_10
REMARK    9  A    between atoms: C_9  and  N_21
REMARK   10  A    between atoms: C_10  and  C_11
REMARK   11  A    between atoms: C_22  and  C_24
REMARK   12  A    between atoms: C_24  and  C_25
REMARK   13  A    between atoms: C_24  and  N_33
REMARK   14  A    between atoms: C_25  and  C_26
REMARK   15  A    between atoms: C_29  and  O_30
REMARK   16  A    between atoms: C_34  and  CA_36
REMARK   17  A    between atoms: CA_36  and  C_37
REMARK   18  A    between atoms: CA_36  and  N_39
REMARK   19  A    between atoms: C_37  and  O_38
REMARK   20  A    between atoms: C_40  and  CA_42
REMARK   21  A    between atoms: CA_42  and  CB_43
REMARK   22  A    between atoms: CA_42  and  N_53
REMARK   23  A    between atoms: CB_43  and  CG_44
REMARK   24  A    between atoms: C_54  and  CA_56
REMARK   25  A    between atoms: CA_56  and  CB_57
REMARK   26  A    between atoms: CA_56  and  N_63
REMARK   27  A    between atoms: CB_57  and  CG_58
REMARK   28  A    between atoms: C_64  and  CA_66
REMARK   29  A    between atoms: N_74  and  C_75
REMARK   30  A    between atoms: C_75  and  C_76
REMARK   31  A    between atoms: C_75  and  C_83
REMARK   32  A    between atoms: C_76  and  C_77
REMARK   33  A    between atoms: C_77  and  C_78
REMARK   34  A    between atoms: C_78  and  N_79
REMARK   35  A    between atoms: C_89  and  C_90
REMARK   36  A    between atoms: N_92  and  C_93
REMARK   37  A    between atoms: C_93  and  C_94
REMARK                            x       y       z     vdW  Elec       q    Type
REMARK                         _______ _______ _______ _____ _____    ______ ____
ROOT
ATOM      1  N   UNL     1      -3.410  -3.398   0.032  0.00  0.00    -0.302 N 
ATOM      2  C   UNL     1      -4.182  -4.413  -0.172  0.00  0.00    +0.234 C 
ATOM      3  O   UNL     1      -4.670  -4.465  -1.302  0.00  0.00    -0.274 OA
ATOM      4  H   UNL     1      -3.397  -2.791  -0.771  0.00  0.00    +0.150 HD
ENDROOT
BRANCH   2   5
ATOM      5  C   UNL     1      -4.552  -5.249   1.037  0.00  0.00    +0.163 C 
BRANCH   5   6
ATOM      6  N   UNL     1      -5.689  -4.564   2.127  0.00  0.00    -0.302 N 
ATOM      7  C   UNL     1      -7.127  -4.530   2.234  0.00  0.00    +0.236 C 
ATOM      8  O   UNL     1      -7.384  -4.399   3.497  0.00  0.00    -0.274 OA
ATOM      9  H   UNL     1      -5.442  -3.668   2.456  0.00  0.00    +0.150 HD
BRANCH   7  10
ATOM     10  CA  UNL     1      -8.471  -5.310   0.671  0.00  0.00    +0.184 C 
BRANCH  10  11
ATOM     11  N   UNL     1      -8.505  -7.023   0.294  0.00  0.00    -0.301 N 
ATOM     12  C   UNL     1      -9.021  -7.911   1.160  0.00  0.00    +0.234 C 
ATOM     13  O   UNL     1      -8.130  -8.775   1.257  0.00  0.00    -0.274 OA
ATOM     14  H   UNL     1      -7.577  -7.487   0.264  0.00  0.00    +0.150 HD
BRANCH  12  15
ATOM     15  CA  UNL     1     -10.374  -7.312   2.074  0.00  0.00    +0.163 C 
BRANCH  15  16
ATOM     16  N   UNL     1     -11.218  -6.983   0.988  0.00  0.00    -0.302 N 
ATOM     17  C   UNL     1     -11.978  -7.978   0.448  0.00  0.00    +0.234 C 
ATOM     18  O   UNL     1     -12.491  -7.721  -0.639  0.00  0.00    -0.274 OA
ATOM     19  H   UNL     1     -10.813  -6.407   0.269  0.00  0.00    +0.150 HD
BRANCH  17  20
ATOM     20  CA  UNL     1     -12.219  -9.342   1.215  0.00  0.00    +0.165 C 
BRANCH  20  21
ATOM     21  N   UNL     1     -12.876  -9.130   2.530  0.00  0.00    -0.302 N 
ATOM     22  C   UNL     1     -14.150  -9.333   2.931  0.00  0.00    +0.234 C 
ATOM     23  O   UNL     1     -14.431  -9.128   4.113  0.00  0.00    -0.274 OA
ATOM     24  H   UNL     1     -12.316  -8.772   3.298  0.00  0.00    +0.150 HD
BRANCH  22  25
ATOM     25  CA  UNL     1     -15.149  -9.954   1.964  0.00  0.00    +0.159 C 
ATOM     26  C   UNL     1     -14.782 -11.403   1.650  0.00  0.00    +0.041 C 
ATOM     27  C   UNL     1     -15.223 -11.587   0.204  0.00  0.00    +0.098 C 
ATOM     28  C   UNL     1     -15.073 -10.205  -0.370  0.00  0.00    +0.214 C 
ATOM     29  O   UNL     1     -14.871  -9.929  -1.537  0.00  0.00    -0.276 OA
ATOM     30  N   UNL     1     -15.177  -9.305   0.673  0.00  0.00    -0.304 N 
ATOM     31  H   UNL     1     -14.988  -8.318   0.516  0.00  0.00    +0.149 HD
ENDBRANCH  22  25
ENDBRANCH  20  21
BRANCH  20  32
ATOM     32  CB  UNL     1     -11.083 -10.443   1.262  0.00  0.00    +0.088 C 
BRANCH  32  33
ATOM     33  CG  UNL     1      -9.962 -10.306   2.307  0.00  0.00    +0.061 A 
ATOM     34  CD2 UNL     1      -8.875 -11.001   2.791  0.00  0.00    +0.107 A 
ATOM     35  NE2 UNL     1      -8.118 -10.124   3.580  0.00  0.00    -0.351 N 
ATOM     36  CE1 UNL     1      -8.816  -8.995   3.669  0.00  0.00    +0.196 A 
ATOM     37  ND1 UNL     1      -9.980  -9.239   3.139  0.00  0.00    -0.241 NA
ATOM     38  HE2 UNL     1      -7.131 -10.087   3.755  0.00  0.00    +0.166 HD
ENDBRANCH  32  33
ENDBRANCH  20  32
ENDBRANCH  17  20
ENDBRANCH  15  16
BRANCH  15  39
ATOM     39  CB  UNL     1     -10.550  -6.570   3.487  0.00  0.00    +0.069 C 
BRANCH  39  40
ATOM     40  CG  UNL     1     -10.088  -5.255   3.306  0.00  0.00    -0.020 A 
ATOM     41  CD1 UNL     1     -10.599  -3.988   3.425  0.00  0.00    +0.087 A 
ATOM     42  NE1 UNL     1      -9.908  -3.033   2.743  0.00  0.00    -0.360 N 
ATOM     43  CE2 UNL     1      -8.991  -3.628   1.970  0.00  0.00    +0.047 A 
ATOM     44  CZ2 UNL     1      -7.866  -2.982   0.958  0.00  0.00    +0.026 A 
ATOM     45  CH2 UNL     1      -6.808  -3.947   0.304  0.00  0.00    +0.002 A 
ATOM     46  CZ3 UNL     1      -6.649  -5.738   0.741  0.00  0.00    +0.001 A 
ATOM     47  CE3 UNL     1      -7.541  -6.370   2.193  0.00  0.00    +0.010 A 
ATOM     48  CD2 UNL     1      -8.926  -5.259   2.645  0.00  0.00    +0.003 A 
ATOM     49  HE1 UNL     1      -9.896  -2.028   2.835  0.00  0.00    +0.165 HD
ENDBRANCH  39  40
ENDBRANCH  15  39
ENDBRANCH  12  15
ENDBRANCH  10  11
BRANCH  10  50
ATOM     50  C   UNL     1      -8.518  -4.963  -0.878  0.00  0.00    +0.187 C 
BRANCH  50  51
ATOM     51  O   UNL     1      -7.373  -5.165  -1.733  0.00  0.00    -0.393 OA
ATOM     52  H   UNL     1      -6.494  -4.973  -1.342  0.00  0.00    +0.209 HD
ENDBRANCH  50  51
ENDBRANCH  10  50
ENDBRANCH   7  10
ENDBRANCH   5   6
BRANCH   5  53
ATOM     53  C   UNL     1      -3.879  -6.358   1.831  0.00  0.00    +0.067 C 
BRANCH  53  54
ATOM     54  C   UNL     1      -3.014  -5.791   2.903  0.00  0.00    -0.045 A 
ATOM     55  C   UNL     1      -1.939  -6.089   3.623  0.00  0.00    +0.007 A 
ATOM     56  C   UNL     1      -1.059  -5.082   4.357  0.00  0.00    +0.045 A 
ATOM     57  C   UNL     1      -1.138  -3.757   4.254  0.00  0.00    +0.117 A 
ATOM     58  C   UNL     1      -2.284  -3.605   3.679  0.00  0.00    +0.045 A 
ATOM     59  C   UNL     1      -3.247  -4.578   3.332  0.00  0.00    +0.007 A 
BRANCH  57  60
ATOM     60  O   UNL     1      -0.487  -2.604   4.489  0.00  0.00    -0.507 OA
ATOM     61  H   UNL     1      -0.090  -2.624   5.364  0.00  0.00    +0.292 HD
ENDBRANCH  57  60
ENDBRANCH  53  54
ENDBRANCH   5  53
ENDBRANCH   2   5
BRANCH   1  62
ATOM     62  C   UNL     1      -2.909  -3.085   1.263  0.00  0.00    +0.163 C 
BRANCH  62  64
ATOM     63  N   UNL     1      -0.855  -2.439   1.529  0.00  0.00    -0.302 N 
ATOM     64  C   UNL     1      -1.515  -3.568   1.326  0.00  0.00    +0.234 C 
ATOM     65  O   UNL     1      -1.017  -4.663   1.233  0.00  0.00    -0.274 OA
ATOM     66  H   UNL     1       0.155  -2.543   1.566  0.00  0.00    +0.150 HD
BRANCH  63  67
ATOM     67  C   UNL     1      -1.644  -1.408   0.818  0.00  0.00    +0.159 C 
BRANCH  67  68
ATOM     68  C   UNL     1      -3.683  -1.128   0.427  0.00  0.00    +0.234 C 
ATOM     69  O   UNL     1      -4.376  -1.310  -0.663  0.00  0.00    -0.274 OA
ATOM     70  N   UNL     1      -4.579  -0.440   1.911  0.00  0.00    -0.302 N 
ATOM     71  H   UNL     1      -5.587  -0.446   1.779  0.00  0.00    +0.150 HD
BRANCH  70  72
ATOM     72  C   UNL     1      -3.512  -0.506   3.586  0.00  0.00    +0.159 C 
BRANCH  72  73
ATOM     73  C   UNL     1      -3.655  -1.980   4.745  0.00  0.00    +0.237 C 
ATOM     74  O   UNL     1      -2.793  -2.269   5.583  0.00  0.00    -0.274 OA
ATOM     75  N   UNL     1      -4.905  -2.680   4.773  0.00  0.00    -0.288 N 
ATOM     76  C   UNL     1      -6.229  -2.294   3.911  0.00  0.00    +0.109 C 
ATOM     77  C   UNL     1      -7.431  -1.934   4.697  0.00  0.00    +0.021 C 
ATOM     78  C   UNL     1      -6.969  -2.691   5.995  0.00  0.00    +0.033 C 
ATOM     79  C   UNL     1      -5.209  -2.907   6.225  0.00  0.00    +0.162 C 
BRANCH  79  80
ATOM     80  C   UNL     1      -3.919  -1.961   7.416  0.00  0.00    +0.234 C 
ATOM     81  O   UNL     1      -3.425  -2.541   8.401  0.00  0.00    -0.274 OA
ATOM     82  N   UNL     1      -3.694  -0.117   7.345  0.00  0.00    -0.305 N 
ATOM     83  H   UNL     1      -3.607   0.301   8.253  0.00  0.00    +0.149 HD
BRANCH  82  84
ATOM     84  C   UNL     1      -4.966   1.239   6.935  0.00  0.00    +0.199 C 
BRANCH  84  85
ATOM     85  C   UNL     1      -6.515   1.776   7.141  0.00  0.00    +0.228 C 
ATOM     86  N   UNL     1      -6.615   2.966   6.485  0.00  0.00    -0.328 N 
ATOM     87  O   UNL     1      -7.610   1.244   7.317  0.00  0.00    -0.274 OA
ATOM     88  H   UNL     1      -7.509   3.400   6.615  0.00  0.00    +0.145 HD
ATOM     89  H   UNL     1      -5.920   3.240   5.807  0.00  0.00    +0.145 HD
ENDBRANCH  84  85
ENDBRANCH  82  84
ENDBRANCH  79  80
ENDBRANCH  72  73
BRANCH  72  90
ATOM     90  C   UNL     1      -3.539   0.750   4.334  0.00  0.00    +0.033 C 
BRANCH  90  91
ATOM     91  C   UNL     1      -5.046   0.829   4.285  0.00  0.00    +0.023 C 
BRANCH  91  92
ATOM     92  C   UNL     1      -5.566  -0.314   5.056  0.00  0.00    +0.115 C 
BRANCH  92  93
ATOM     93  N   UNL     1      -5.210  -0.800   6.336  0.00  0.00    -0.356 N 
ATOM     94  C   UNL     1      -5.807  -0.799   7.844  0.00  0.00    +0.188 C 
ATOM     95  N   UNL     1      -4.988  -0.497   9.017  0.00  0.00    -0.370 N 
ATOM     96  N   UNL     1      -7.051  -0.893   8.051  0.00  0.00    -0.269 NA
ATOM     97  H   UNL     1      -4.161  -0.633   6.261  0.00  0.00    +0.162 HD
ATOM     98  H   UNL     1      -5.341  -0.571   9.956  0.00  0.00    +0.159 HD
ATOM     99  H   UNL     1      -4.016  -0.894   9.098  0.00  0.00    +0.159 HD
ATOM    100  H   UNL     1      -7.254  -0.567   8.977  0.00  0.00    +0.190 HD
ENDBRANCH  92  93
ENDBRANCH  91  92
ENDBRANCH  90  91
ENDBRANCH  72  90
ENDBRANCH  70  72
ENDBRANCH  67  68
BRANCH  67 101
ATOM    101  C   UNL     1      -0.596  -0.071   1.629  0.00  0.00    +0.034 C 
BRANCH 101 103
ATOM    102  C   UNL     1       1.210  -0.001  -0.070  0.00  0.00    +0.007 C 
ATOM    103  C   UNL     1       0.865   0.047   1.405  0.00  0.00    -0.015 C 
ATOM    104  C   UNL     1       1.207   1.436   1.992  0.00  0.00    +0.007 C 
ENDBRANCH 101 103
ENDBRANCH  67 101
ENDBRANCH  63  67
ENDBRANCH  62  64
BRANCH  62 105
ATOM    105  C   UNL     1      -3.287  -1.783   2.025  0.00  0.00    +0.067 C 
BRANCH 105 106
ATOM    106  C   UNL     1      -2.779   0.107   1.421  0.00  0.00    -0.045 A 
ATOM    107  C   UNL     1      -3.306   1.345   1.755  0.00  0.00    +0.012 A 
ATOM    108  C   UNL     1      -2.953   2.314   0.946  0.00  0.00    -0.018 A 
ATOM    109  C   UNL     1      -3.340   3.491   1.440  0.00  0.00    +0.008 A 
ATOM    110  C   UNL     1      -2.777   4.491   0.727  0.00  0.00    +0.001 A 
ATOM    111  C   UNL     1      -1.802   4.265  -0.293  0.00  0.00    +0.001 A 
ATOM    112  C   UNL     1      -1.376   3.056  -0.729  0.00  0.00    +0.008 A 
ATOM    113  C   UNL     1      -2.095   2.106  -0.227  0.00  0.00    -0.018 A 
ATOM    114  C   UNL     1      -1.780   1.042  -0.919  0.00  0.00    +0.009 A 
ATOM    115  C   UNL     1      -2.357   0.156  -0.227  0.00  0.00    +0.004 A 
ENDBRANCH 105 106
ENDBRANCH  62 105
ENDBRANCH   1  62
TORSDOF 35
