REMARK  Name = 
REMARK  9 active torsions:
REMARK  status: ('A' for Active; 'I' for Inactive)
REMARK    1  A    between atoms: C_3  and  C_4
REMARK    2  A    between atoms: C_3  and  C_5
REMARK    3  A    between atoms: CA_6  and  C_27
REMARK    4  A    between atoms: CA_10  and  N_11
REMARK    5  A    between atoms: C_12  and  C_14
REMARK    6  A    between atoms: C_15  and  O_16
REMARK    7  A    between atoms: O_16  and  C_17
REMARK    8  A    between atoms: C_17  and  C_18
REMARK    9  A    between atoms: C_27  and  O_28
REMARK                            x       y       z     vdW  Elec       q    Type
REMARK                         _______ _______ _______ _____ _____    ______ ____
ROOT
ATOM      1  N   UNL     1      -0.158  -0.689  -0.896  0.00  0.00    -0.298 N 
ATOM      2  C   UNL     1      -1.044  -1.591  -0.216  0.00  0.00    +0.249 C 
ATOM      3  O   UNL     1      -0.830  -2.834  -0.247  0.00  0.00    -0.270 OA
ATOM      4  H   UNL     1      -0.413   0.323  -0.887  0.00  0.00    +0.150 HD
ENDROOT
BRANCH   1  14
ATOM      5  C   UNL     1       1.812  -0.212  -2.330  0.00  0.00    +0.165 C 
ATOM      6  S   UNL     1       1.781   1.521  -1.733  0.00  0.00    -0.127 S 
ATOM      7  C   UNL     1       3.304   1.320  -0.687  0.00  0.00    +0.042 C 
ATOM      8  C   UNL     1       4.206   2.556  -0.868  0.00  0.00    +0.025 C 
ATOM      9  C   UNL     1       2.848   1.253   0.780  0.00  0.00    +0.025 C 
ATOM     10  CA  UNL     1       3.992  -0.027  -1.076  0.00  0.00    +0.201 C 
ATOM     11  N   UNL     1       2.925  -0.803  -1.651  0.00  0.00    -0.271 N 
ATOM     12  C   UNL     1       2.012  -1.835  -1.106  0.00  0.00    +0.240 C 
ATOM     13  O   UNL     1       2.142  -2.812  -0.324  0.00  0.00    -0.273 OA
ATOM     14  CA  UNL     1       0.866  -1.189  -1.822  0.00  0.00    +0.190 C 
BRANCH  10  15
ATOM     15  C   UNL     1       5.102   0.109  -2.085  0.00  0.00    +0.327 C 
ATOM     16  OXT UNL     1       4.843   0.336  -3.298  0.00  0.00    -0.249 OA
BRANCH  15  17
ATOM     17  O   UNL     1       6.426   0.023  -1.665  0.00  0.00    -0.479 OA
ATOM     18  H   UNL     1       7.188   0.128  -2.324  0.00  0.00    +0.295 HD
ENDBRANCH  15  17
ENDBRANCH  10  15
ENDBRANCH   1  14
BRANCH   2  19
ATOM     19  C   UNL     1      -2.220  -1.073   0.519  0.00  0.00    +0.086 A 
ATOM     20  C   UNL     1      -2.015  -0.129   1.549  0.00  0.00    +0.133 A 
ATOM     21  C   UNL     1      -3.118   0.356   2.275  0.00  0.00    +0.047 A 
ATOM     22  C   UNL     1      -4.407  -0.085   1.991  0.00  0.00    +0.012 A 
ATOM     23  C   UNL     1      -4.630  -1.012   0.969  0.00  0.00    -0.017 A 
ATOM     24  C   UNL     1      -5.937  -1.439   0.685  0.00  0.00    +0.008 A 
ATOM     25  C   UNL     1      -6.173  -2.344  -0.350  0.00  0.00    +0.001 A 
ATOM     26  C   UNL     1      -5.110  -2.825  -1.113  0.00  0.00    +0.001 A 
ATOM     27  C   UNL     1      -3.804  -2.413  -0.842  0.00  0.00    +0.009 A 
ATOM     28  C   UNL     1      -3.537  -1.512   0.214  0.00  0.00    -0.002 A 
BRANCH  20  29
ATOM     29  O   UNL     1      -0.700   0.280   1.840  0.00  0.00    -0.491 OA
BRANCH  29  30
ATOM     30  C   UNL     1      -0.331   1.337   2.726  0.00  0.00    +0.226 C 
ATOM     31  C   UNL     1      -0.624   2.695   2.096  0.00  0.00    +0.048 C 
ENDBRANCH  29  30
ENDBRANCH  20  29
ENDBRANCH   2  19
TORSDOF 6
