REMARK  Name = 
REMARK  6 active torsions:
REMARK  status: ('A' for Active; 'I' for Inactive)
REMARK    1  A    between atoms: C_1  and  N_2
REMARK    2  A    between atoms: N_2  and  C_3
REMARK    3  A    between atoms: N_2  and  C_12
REMARK    4  A    between atoms: C_3  and  C_4
REMARK    5  A    between atoms: C_5  and  C_6
REMARK    6  A    between atoms: C_12  and  C_13
REMARK                            x       y       z     vdW  Elec       q    Type
REMARK                         _______ _______ _______ _____ _____    ______ ____
ROOT
ATOM      1  C   UNL     1      -0.399  -1.559  -0.700  0.00  0.00    +0.105 C 
ATOM      2  N   UNL     1      -0.279  -1.710   0.761  0.00  0.00    -0.298 NA
ENDROOT
BRANCH   2   3
ATOM      3  C   UNL     1       1.078  -2.149   1.159  0.00  0.00    +0.111 C 
BRANCH   3   4
ATOM      4  C   UNL     1       2.138  -1.104   0.906  0.00  0.00    -0.011 C 
ATOM      5  C   UNL     1       2.830  -1.069  -0.239  0.00  0.00    +0.005 C 
BRANCH   5   6
ATOM      6  C   UNL     1       3.869  -0.056  -0.545  0.00  0.00    -0.025 A 
ATOM      7  C   UNL     1       4.814  -0.342  -1.545  0.00  0.00    +0.008 A 
ATOM      8  C   UNL     1       5.804   0.589  -1.874  0.00  0.00    +0.001 A 
ATOM      9  C   UNL     1       5.854   1.820  -1.217  0.00  0.00    +0.000 A 
ATOM     10  C   UNL     1       4.910   2.124  -0.233  0.00  0.00    +0.001 A 
ATOM     11  C   UNL     1       3.919   1.196   0.101  0.00  0.00    +0.008 A 
ENDBRANCH   5   6
ENDBRANCH   3   4
ENDBRANCH   2   3
BRANCH   2  12
ATOM     12  C   UNL     1      -0.705  -0.491   1.481  0.00  0.00    +0.120 C 
BRANCH  12  13
ATOM     13  C   UNL     1      -2.217  -0.378   1.491  0.00  0.00    -0.026 A 
ATOM     14  C   UNL     1      -2.910  -1.197   2.401  0.00  0.00    +0.005 A 
ATOM     15  C   UNL     1      -4.300  -1.163   2.484  0.00  0.00    +0.001 A 
ATOM     16  C   UNL     1      -5.033  -0.319   1.655  0.00  0.00    +0.008 A 
ATOM     17  C   UNL     1      -4.379   0.497   0.723  0.00  0.00    -0.018 A 
ATOM     18  C   UNL     1      -5.134   1.333  -0.116  0.00  0.00    +0.008 A 
ATOM     19  C   UNL     1      -4.502   2.140  -1.059  0.00  0.00    +0.001 A 
ATOM     20  C   UNL     1      -3.114   2.120  -1.178  0.00  0.00    +0.001 A 
ATOM     21  C   UNL     1      -2.345   1.297  -0.351  0.00  0.00    +0.009 A 
ATOM     22  C   UNL     1      -2.959   0.473   0.621  0.00  0.00    -0.013 A 
ENDBRANCH  12  13
ENDBRANCH   2  12
TORSDOF 5
