REMARK  Name = 
REMARK  5 active torsions:
REMARK  status: ('A' for Active; 'I' for Inactive)
REMARK    1  A    between atoms: O_1  and  C_2
REMARK    2  A    between atoms: C_5  and  O_6
REMARK    3  A    between atoms: C_12  and  O_13
REMARK    4  A    between atoms: N_19  and  C_20
REMARK    5  A    between atoms: C_20  and  C_21
REMARK                            x       y       z     vdW  Elec       q    Type
REMARK                         _______ _______ _______ _____ _____    ______ ____
ROOT
ATOM      1  C   UNL     1      -3.376  -1.939   0.369  0.00  0.00    +0.156 C 
ATOM      2  C   UNL     1      -2.406  -2.779  -0.480  0.00  0.00    +0.038 C 
ATOM      3  C   UNL     1      -1.387  -1.897  -1.212  0.00  0.00    +0.040 C 
ATOM      4  C   UNL     1      -0.487  -1.198  -0.175  0.00  0.00    +0.095 C 
ATOM      5  C   UNL     1       0.593  -0.254  -0.802  0.00  0.00    +0.094 C 
ATOM      6  C   UNL     1      -0.015   0.962  -1.599  0.00  0.00    +0.057 C 
ATOM      7  C   UNL     1      -1.263   1.543  -0.982  0.00  0.00    -0.038 A 
ATOM      8  C   UNL     1      -1.919   2.680  -1.493  0.00  0.00    +0.008 A 
ATOM      9  C   UNL     1      -3.156   3.092  -0.941  0.00  0.00    +0.049 A 
ATOM     10  C   UNL     1      -3.764   2.340   0.086  0.00  0.00    +0.159 A 
ATOM     11  C   UNL     1      -3.090   1.210   0.553  0.00  0.00    +0.166 A 
ATOM     12  C   UNL     1      -1.868   0.871   0.065  0.00  0.00    +0.014 A 
ATOM     13  C   UNL     1      -1.333  -0.313   0.777  0.00  0.00    +0.070 C 
ATOM     14  C   UNL     1      -0.415   0.208   1.920  0.00  0.00    +0.033 C 
ATOM     15  C   UNL     1       0.829   0.948   1.368  0.00  0.00    +0.086 C 
ATOM     16  N   UNL     1       1.496   0.170   0.301  0.00  0.00    -0.296 NA
ATOM     17  C   UNL     1      -2.677  -0.912   1.327  0.00  0.00    +0.215 C 
ATOM     18  O   UNL     1      -3.533   0.240   1.437  0.00  0.00    -0.481 OA
ENDROOT
BRANCH   1  19
ATOM     19  O   UNL     1      -4.272  -1.277  -0.492  0.00  0.00    -0.388 OA
ATOM     20  H   UNL     1      -4.940  -1.948  -0.792  0.00  0.00    +0.210 HD
ENDBRANCH   1  19
BRANCH   4  21
ATOM     21  O   UNL     1       0.166  -2.193   0.588  0.00  0.00    -0.386 OA
ATOM     22  H   UNL     1       0.768  -2.699  -0.019  0.00  0.00    +0.210 HD
ENDBRANCH   4  21
BRANCH  10  23
ATOM     23  O   UNL     1      -5.008   2.707   0.591  0.00  0.00    -0.503 OA
ATOM     24  H   UNL     1      -5.460   2.171   1.323  0.00  0.00    +0.292 HD
ENDBRANCH  10  23
BRANCH  16  25
ATOM     25  C   UNL     1       2.782   0.746  -0.145  0.00  0.00    +0.088 C 
BRANCH  25  26
ATOM     26  C   UNL     1       3.888  -0.308   0.011  0.00  0.00    +0.003 C 
ATOM     27  C   UNL     1       4.295  -0.578   1.459  0.00  0.00    +0.005 C 
ATOM     28  C   UNL     1       5.692  -0.051   1.163  0.00  0.00    +0.001 C 
ATOM     29  C   UNL     1       5.289   0.226  -0.279  0.00  0.00    +0.005 C 
ENDBRANCH  25  26
ENDBRANCH  16  25
TORSDOF 5
