REMARK  Name = 
REMARK  5 active torsions:
REMARK  status: ('A' for Active; 'I' for Inactive)
REMARK    1  A    between atoms: C_1  and  C_2
REMARK    2  A    between atoms: C_2  and  N_3
REMARK    3  A    between atoms: C_5  and  C_6
REMARK    4  A    between atoms: C_6  and  O_7
REMARK    5  A    between atoms: C_14  and  C_15
REMARK                            x       y       z     vdW  Elec       q    Type
REMARK                         _______ _______ _______ _____ _____    ______ ____
ROOT
ATOM      1  N   UNL     1      -0.911   0.699  -0.336  0.00  0.00    -0.331 N 
ATOM      2  C   UNL     1      -2.041  -0.071  -0.294  0.00  0.00    +0.106 A 
ATOM      3  C   UNL     1      -1.973  -1.468  -0.153  0.00  0.00    +0.122 A 
ATOM      4  C   UNL     1      -0.705  -2.072  -0.043  0.00  0.00    +0.205 A 
ATOM      5  O   UNL     1      -0.603  -3.324   0.082  0.00  0.00    -0.286 OA
ATOM      6  C   UNL     1       0.452  -1.276  -0.067  0.00  0.00    +0.065 A 
ATOM      7  C   UNL     1       0.328   0.124  -0.211  0.00  0.00    +0.145 A 
ATOM      8  N   UNL     1       1.453   0.896  -0.223  0.00  0.00    -0.234 NA
ATOM      9  C   UNL     1       2.702   0.372  -0.103  0.00  0.00    +0.041 A 
ATOM     10  C   UNL     1       3.893   1.274  -0.129  0.00  0.00    +0.065 C 
ATOM     11  C   UNL     1       2.863  -1.010   0.034  0.00  0.00    +0.024 A 
ATOM     12  C   UNL     1       1.738  -1.833   0.053  0.00  0.00    +0.017 A 
ENDROOT
BRANCH   1  14
ATOM     13  C   UNL     1      -1.093   2.813   0.916  0.00  0.00    +0.027 C 
ATOM     14  C   UNL     1      -1.058   2.160  -0.462  0.00  0.00    +0.120 C 
ENDBRANCH   1  14
BRANCH   3  15
ATOM     15  C   UNL     1      -3.231  -2.264  -0.123  0.00  0.00    +0.342 C 
ATOM     16  O   UNL     1      -4.348  -1.691  -0.229  0.00  0.00    -0.245 OA
BRANCH  15  17
ATOM     17  O   UNL     1      -3.197  -3.649   0.024  0.00  0.00    -0.477 OA
ATOM     18  H   UNL     1      -4.052  -4.191   0.045  0.00  0.00    +0.295 HD
ENDBRANCH  15  17
ENDBRANCH   3  15
TORSDOF 3
