REMARK  Name = 
REMARK  4 active torsions:
REMARK  status: ('A' for Active; 'I' for Inactive)
REMARK    1  A    between atoms: C_4  and  O_5
REMARK    2  A    between atoms: N_13  and  C_14
REMARK    3  A    between atoms: C_14  and  C_15
REMARK    4  A    between atoms: C_19  and  O_20
REMARK                            x       y       z     vdW  Elec       q    Type
REMARK                         _______ _______ _______ _____ _____    ______ ____
ROOT
ATOM      1  C   UNL     1      -1.693  -0.947   1.591  0.00  0.00    +0.252 C 
ATOM      2  O   UNL     1      -2.703   0.068   1.686  0.00  0.00    -0.476 OA
ATOM      3  C   UNL     1      -2.485   1.039   0.730  0.00  0.00    +0.167 A 
ATOM      4  C   UNL     1      -3.357   2.049   0.317  0.00  0.00    +0.159 A 
ATOM      5  C   UNL     1      -3.000   2.808  -0.815  0.00  0.00    +0.049 A 
ATOM      6  C   UNL     1      -1.823   2.503  -1.535  0.00  0.00    +0.008 A 
ATOM      7  C   UNL     1      -0.965   1.482  -1.082  0.00  0.00    -0.038 A 
ATOM      8  C   UNL     1      -1.296   0.836   0.106  0.00  0.00    +0.014 A 
ATOM      9  C   UNL     1      -0.555  -0.299   0.727  0.00  0.00    +0.075 C 
ATOM     10  C   UNL     1       0.582   0.267   1.613  0.00  0.00    +0.034 C 
ATOM     11  C   UNL     1       1.619   1.064   0.792  0.00  0.00    +0.086 C 
ATOM     12  N   UNL     1       2.065   0.368  -0.442  0.00  0.00    -0.293 NA
ATOM     13  C   UNL     1       0.960  -0.222  -1.251  0.00  0.00    +0.094 C 
ATOM     14  C   UNL     1       0.156   0.933  -1.935  0.00  0.00    +0.057 C 
ATOM     15  C   UNL     1       0.064  -1.180  -0.387  0.00  0.00    +0.096 C 
ATOM     16  C   UNL     1      -1.053  -1.849  -1.222  0.00  0.00    +0.045 C 
ATOM     17  C   UNL     1      -1.936  -2.766  -0.364  0.00  0.00    +0.081 C 
ATOM     18  C   UNL     1      -2.319  -2.189   0.982  0.00  0.00    +0.175 C 
ATOM     19  O   UNL     1      -3.175  -2.772   1.629  0.00  0.00    -0.293 OA
ENDROOT
BRANCH   4  20
ATOM     20  O   UNL     1      -4.560   2.287   0.977  0.00  0.00    -0.503 OA
ATOM     21  H   UNL     1      -4.834   1.744   1.787  0.00  0.00    +0.292 HD
ENDBRANCH   4  20
BRANCH  15  22
ATOM     22  O   UNL     1       0.888  -2.198   0.143  0.00  0.00    -0.386 OA
ATOM     23  H   UNL     1       0.435  -2.611   0.923  0.00  0.00    +0.210 HD
ENDBRANCH  15  22
BRANCH  12  24
ATOM     24  C   UNL     1       3.201  -0.546  -0.199  0.00  0.00    +0.111 C 
BRANCH  24  25
ATOM     25  C   UNL     1       4.486   0.233  -0.234  0.00  0.00    -0.019 C 
ATOM     26  C   UNL     1       5.264   0.366   0.844  0.00  0.00    +0.005 C 
ENDBRANCH  24  25
ENDBRANCH  12  24
TORSDOF 4
