REMARK  Name = 
REMARK  4 active torsions:
REMARK  status: ('A' for Active; 'I' for Inactive)
REMARK    1  A    between atoms: C_4  and  O_5
REMARK    2  A    between atoms: N_13  and  C_14
REMARK    3  A    between atoms: C_14  and  C_15
REMARK    4  A    between atoms: C_20  and  O_21
REMARK                            x       y       z     vdW  Elec       q    Type
REMARK                         _______ _______ _______ _____ _____    ______ ____
ROOT
ATOM      1  C   UNL     1      -2.603  -0.429   1.544  0.00  0.00    +0.252 C 
ATOM      2  O   UNL     1      -3.479   0.499   0.891  0.00  0.00    -0.476 OA
ATOM      3  C   UNL     1      -2.856   1.032  -0.218  0.00  0.00    +0.167 A 
ATOM      4  C   UNL     1      -3.439   1.761  -1.253  0.00  0.00    +0.159 A 
ATOM      5  C   UNL     1      -2.656   2.031  -2.395  0.00  0.00    +0.049 A 
ATOM      6  C   UNL     1      -1.347   1.511  -2.496  0.00  0.00    +0.008 A 
ATOM      7  C   UNL     1      -0.790   0.787  -1.424  0.00  0.00    -0.038 A 
ATOM      8  C   UNL     1      -1.551   0.653  -0.265  0.00  0.00    +0.014 A 
ATOM      9  C   UNL     1      -1.174  -0.109   0.966  0.00  0.00    +0.075 C 
ATOM     10  C   UNL     1      -0.372   0.844   1.906  0.00  0.00    +0.034 C 
ATOM     11  C   UNL     1       1.158   0.647   1.856  0.00  0.00    +0.086 C 
ATOM     12  N   UNL     1       1.675   0.311   0.508  0.00  0.00    -0.296 NA
ATOM     13  C   UNL     1       0.908  -0.723  -0.258  0.00  0.00    +0.094 C 
ATOM     14  C   UNL     1       0.454  -0.050  -1.588  0.00  0.00    +0.057 C 
ATOM     15  C   UNL     1      -0.298  -1.324   0.555  0.00  0.00    +0.096 C 
ATOM     16  C   UNL     1      -1.130  -2.330  -0.275  0.00  0.00    +0.045 C 
ATOM     17  C   UNL     1      -2.309  -2.889   0.527  0.00  0.00    +0.081 C 
ATOM     18  C   UNL     1      -3.101  -1.836   1.269  0.00  0.00    +0.175 C 
ATOM     19  O   UNL     1      -4.201  -2.148   1.700  0.00  0.00    -0.293 OA
ENDROOT
BRANCH   4  20
ATOM     20  O   UNL     1      -4.765   2.176  -1.166  0.00  0.00    -0.503 OA
ATOM     21  H   UNL     1      -5.205   2.697  -1.916  0.00  0.00    +0.292 HD
ENDBRANCH   4  20
BRANCH  15  22
ATOM     22  O   UNL     1       0.225  -2.011   1.673  0.00  0.00    -0.386 OA
ATOM     23  H   UNL     1      -0.473  -2.060   2.377  0.00  0.00    +0.210 HD
ENDBRANCH  15  22
BRANCH  12  24
ATOM     24  C   UNL     1       3.121   0.004   0.582  0.00  0.00    +0.088 C 
BRANCH  24  25
ATOM     25  C   UNL     1       3.781   0.151  -0.799  0.00  0.00    +0.003 C 
ATOM     26  C   UNL     1       5.210   0.675  -0.800  0.00  0.00    +0.005 C 
ATOM     27  C   UNL     1       4.065   1.583  -1.226  0.00  0.00    +0.005 C 
ENDBRANCH  24  25
ENDBRANCH  12  24
TORSDOF 4
