REMARK  Name = 
REMARK  6 active torsions:
REMARK  status: ('A' for Active; 'I' for Inactive)
REMARK    1  A    between atoms: C_4  and  O_5
REMARK    2  A    between atoms: O_5  and  C_6
REMARK    3  A    between atoms: C_6  and  C_8
REMARK    4  A    between atoms: C_8  and  C_9
REMARK    5  A    between atoms: C_9  and  C_10
REMARK    6  A    between atoms: C_16  and  C_17
REMARK                            x       y       z     vdW  Elec       q    Type
REMARK                         _______ _______ _______ _____ _____    ______ ____
ROOT
ATOM      1  C   UNL     1       1.297   1.419  -1.238  0.00  0.00    +0.002 C 
ATOM      2  C   UNL     1       0.767   2.806  -1.579  0.00  0.00    +0.008 C 
ATOM      3  C   UNL     1      -0.636   2.539  -2.151  0.00  0.00    +0.045 C 
ATOM      4  C   UNL     1      -0.938   1.045  -1.911  0.00  0.00    +0.183 C 
ATOM      5  C   UNL     1       0.057   0.626  -0.807  0.00  0.00    +0.008 C 
ATOM      6  C   UNL     1      -0.507   1.039   0.591  0.00  0.00    +0.015 C 
ATOM      7  C   UNL     1       0.435  -0.870  -0.804  0.00  0.00    +0.011 C 
ATOM      8  C   UNL     1       1.645  -1.145   0.122  0.00  0.00    +0.005 C 
ATOM      9  C   UNL     1       2.871  -0.219  -0.151  0.00  0.00    -0.000 C 
ATOM     10  C   UNL     1       4.000  -0.414   0.907  0.00  0.00    +0.019 C 
ATOM     11  C   UNL     1       4.523  -1.874   0.902  0.00  0.00    +0.016 C 
ATOM     12  C   UNL     1       5.724  -2.049   1.831  0.00  0.00    +0.079 C 
ATOM     13  C   UNL     1       6.783  -1.045   1.502  0.00  0.00    +0.156 C 
ATOM     14  O   UNL     1       7.993  -1.310   1.732  0.00  0.00    -0.293 OA
ATOM     15  C   UNL     1       6.410   0.279   0.987  0.00  0.00    +0.045 C 
ATOM     16  C   UNL     1       5.138   0.583   0.673  0.00  0.00    -0.063 C 
ATOM     17  C   UNL     1       4.804   2.019   0.344  0.00  0.00    +0.031 C 
ATOM     18  C   UNL     1       3.676   2.118  -0.682  0.00  0.00    +0.008 C 
ATOM     19  C   UNL     1       2.462   1.286  -0.237  0.00  0.00    -0.003 C 
ENDROOT
BRANCH   4  20
ATOM     20  O   UNL     1      -2.304   0.864  -1.532  0.00  0.00    -0.461 OA
BRANCH  20  21
ATOM     21  C   UNL     1      -2.986  -0.351  -1.660  0.00  0.00    +0.308 C 
ATOM     22  O   UNL     1      -2.448  -1.337  -2.233  0.00  0.00    -0.251 OA
BRANCH  21  23
ATOM     23  C   UNL     1      -4.360  -0.486  -1.087  0.00  0.00    +0.125 C 
BRANCH  23  24
ATOM     24  C   UNL     1      -4.307  -1.180   0.276  0.00  0.00    +0.046 C 
BRANCH  24  25
ATOM     25  C   UNL     1      -5.685  -1.278   0.873  0.00  0.00    -0.047 A 
ATOM     26  C   UNL     1      -6.520  -2.362   0.555  0.00  0.00    +0.003 A 
ATOM     27  C   UNL     1      -7.814  -2.433   1.082  0.00  0.00    +0.000 A 
ATOM     28  C   UNL     1      -8.284  -1.420   1.923  0.00  0.00    +0.000 A 
ATOM     29  C   UNL     1      -7.464  -0.332   2.234  0.00  0.00    +0.000 A 
ATOM     30  C   UNL     1      -6.171  -0.256   1.707  0.00  0.00    +0.003 A 
ENDBRANCH  24  25
ENDBRANCH  23  24
ENDBRANCH  21  23
ENDBRANCH  20  21
ENDBRANCH   4  20
TORSDOF 5
