REMARK  Name = 
REMARK  12 active torsions:
REMARK  status: ('A' for Active; 'I' for Inactive)
REMARK    1  A    between atoms: C_1  and  C_2
REMARK    2  A    between atoms: C_2  and  C_3
REMARK    3  A    between atoms: C_3  and  C_4
REMARK    4  A    between atoms: C_4  and  C_5
REMARK    5  A    between atoms: C_5  and  C_6
REMARK    6  A    between atoms: C_6  and  C_7
REMARK    7  A    between atoms: C_7  and  C_8
REMARK    8  A    between atoms: C_8  and  C_9
REMARK    9  A    between atoms: C_9  and  C_10
REMARK   10  A    between atoms: C_10  and  O_12
REMARK   11  A    between atoms: O_12  and  C_13
REMARK   12  A    between atoms: C_30  and  C_31
REMARK                            x       y       z     vdW  Elec       q    Type
REMARK                         _______ _______ _______ _____ _____    ______ ____
ROOT
ATOM      1  C   UNL     1      -0.667  -1.884   1.193  0.00  0.00    +0.183 C 
ATOM      2  C   UNL     1      -1.104  -2.046   2.665  0.00  0.00    +0.045 C 
ATOM      3  C   UNL     1      -2.514  -1.444   2.778  0.00  0.00    +0.008 C 
ATOM      4  C   UNL     1      -2.915  -1.169   1.334  0.00  0.00    +0.002 C 
ATOM      5  C   UNL     1      -4.060  -0.173   1.058  0.00  0.00    -0.003 C 
ATOM      6  C   UNL     1      -5.335  -0.568   1.847  0.00  0.00    +0.008 C 
ATOM      7  C   UNL     1      -6.678  -0.225   1.170  0.00  0.00    +0.031 C 
ATOM      8  C   UNL     1      -6.607   0.830   0.089  0.00  0.00    -0.063 C 
ATOM      9  C   UNL     1      -7.728   1.501  -0.228  0.00  0.00    +0.045 C 
ATOM     10  C   UNL     1      -7.808   2.331  -1.441  0.00  0.00    +0.156 C 
ATOM     11  O   UNL     1      -8.822   3.048  -1.636  0.00  0.00    -0.293 OA
ATOM     12  C   UNL     1      -6.686   2.345  -2.439  0.00  0.00    +0.079 C 
ATOM     13  C   UNL     1      -5.739   1.151  -2.240  0.00  0.00    +0.016 C 
ATOM     14  C   UNL     1      -5.349   1.017  -0.749  0.00  0.00    +0.019 C 
ATOM     15  C   UNL     1      -4.327  -0.121  -0.478  0.00  0.00    -0.000 C 
ATOM     16  C   UNL     1      -3.019   0.067  -1.311  0.00  0.00    +0.005 C 
ATOM     17  C   UNL     1      -1.857  -0.862  -0.887  0.00  0.00    +0.011 C 
ATOM     18  C   UNL     1      -1.605  -0.790   0.633  0.00  0.00    +0.008 C 
ATOM     19  C   UNL     1      -1.061   0.621   1.024  0.00  0.00    +0.015 C 
ENDROOT
BRANCH   1  20
ATOM     20  O   UNL     1       0.717  -1.536   1.121  0.00  0.00    -0.461 OA
BRANCH  20  21
ATOM     21  C   UNL     1       1.502  -1.708  -0.026  0.00  0.00    +0.307 C 
ATOM     22  O   UNL     1       1.032  -2.272  -1.051  0.00  0.00    -0.251 OA
BRANCH  21  23
ATOM     23  C   UNL     1       2.927  -1.247  -0.019  0.00  0.00    +0.120 C 
BRANCH  23  24
ATOM     24  C   UNL     1       3.019   0.229   0.394  0.00  0.00    +0.011 C 
BRANCH  24  25
ATOM     25  C   UNL     1       4.438   0.800   0.242  0.00  0.00    +0.001 C 
BRANCH  25  26
ATOM     26  C   UNL     1       5.458   0.115   1.169  0.00  0.00    +0.000 C 
BRANCH  26  27
ATOM     27  C   UNL     1       6.777   0.899   1.291  0.00  0.00    +0.000 C 
BRANCH  27  28
ATOM     28  C   UNL     1       7.522   1.115  -0.040  0.00  0.00    -0.000 C 
BRANCH  28  29
ATOM     29  C   UNL     1       7.958  -0.205  -0.701  0.00  0.00    -0.000 C 
BRANCH  29  31
ATOM     30  C   UNL     1       8.227   0.655  -3.090  0.00  0.00    +0.004 C 
ATOM     31  C   UNL     1       8.916   0.017  -1.882  0.00  0.00    -0.003 C 
ENDBRANCH  29  31
ENDBRANCH  28  29
ENDBRANCH  27  28
ENDBRANCH  26  27
ENDBRANCH  25  26
ENDBRANCH  24  25
ENDBRANCH  23  24
ENDBRANCH  21  23
ENDBRANCH  20  21
ENDBRANCH   1  20
TORSDOF 10
