REMARK  Name = 
REMARK  2 active torsions:
REMARK  status: ('A' for Active; 'I' for Inactive)
REMARK    1  A    between atoms: C_1  and  C_2
REMARK    2  A    between atoms: C_1  and  C_7
REMARK                            x       y       z     vdW  Elec       q    Type
REMARK                         _______ _______ _______ _____ _____    ______ ____
ROOT
ATOM      1  C   UNL     1      -0.488  -0.892   0.694  0.00  0.00    -0.033 A 
ATOM      2  C   UNL     1      -0.841  -2.201   0.320  0.00  0.00    +0.004 A 
ATOM      3  C   UNL     1      -1.964  -2.443  -0.469  0.00  0.00    +0.001 A 
ATOM      4  C   UNL     1      -2.756  -1.385  -0.908  0.00  0.00    +0.008 A 
ATOM      5  C   UNL     1      -2.427  -0.067  -0.566  0.00  0.00    -0.018 A 
ATOM      6  C   UNL     1      -3.226   0.993  -1.023  0.00  0.00    +0.008 A 
ATOM      7  C   UNL     1      -2.903   2.310  -0.696  0.00  0.00    +0.001 A 
ATOM      8  C   UNL     1      -1.782   2.581   0.088  0.00  0.00    +0.001 A 
ATOM      9  C   UNL     1      -0.977   1.539   0.553  0.00  0.00    +0.009 A 
ATOM     10  C   UNL     1      -1.283   0.197   0.238  0.00  0.00    -0.014 A 
ENDROOT
BRANCH   1  11
ATOM     11  C   UNL     1       0.757  -0.701   1.532  0.00  0.00    +0.106 C 
BRANCH  11  12
ATOM     12  C   UNL     1       1.902  -0.255   0.676  0.00  0.00    +0.094 C 
ATOM     13  N   UNL     1       2.471   0.892   0.813  0.00  0.00    -0.272 NA
ATOM     14  C   UNL     1       3.538   1.029  -0.172  0.00  0.00    +0.162 C 
ATOM     15  C   UNL     1       3.521  -0.286  -0.969  0.00  0.00    +0.126 C 
ATOM     16  N   UNL     1       2.450  -1.046  -0.358  0.00  0.00    -0.331 N 
ATOM     17  H   UNL     1       2.137  -2.003  -0.636  0.00  0.00    +0.147 HD
ENDBRANCH  11  12
ENDBRANCH   1  11
TORSDOF 2
