REMARK  Name = 
REMARK  6 active torsions:
REMARK  status: ('A' for Active; 'I' for Inactive)
REMARK    1  A    between atoms: C_1  and  O_2
REMARK    2  A    between atoms: O_2  and  C_3
REMARK    3  A    between atoms: C_10  and  C_13
REMARK    4  A    between atoms: C_13  and  C_14
REMARK    5  A    between atoms: C_13  and  C_15
REMARK    6  A    between atoms: C_15  and  O_16
REMARK                            x       y       z     vdW  Elec       q    Type
REMARK                         _______ _______ _______ _____ _____    ______ ____
ROOT
ATOM      1  C   UNL     1       3.168   0.232  -0.592  0.00  0.00    +0.121 A 
ATOM      2  C   UNL     1       2.189   0.980  -1.258  0.00  0.00    +0.054 A 
ATOM      3  C   UNL     1       0.828   0.793  -0.971  0.00  0.00    -0.014 A 
ATOM      4  C   UNL     1       0.441  -0.158   0.000  0.00  0.00    -0.017 A 
ATOM      5  C   UNL     1       1.422  -0.906   0.667  0.00  0.00    +0.012 A 
ATOM      6  C   UNL     1       2.775  -0.714   0.374  0.00  0.00    +0.046 A 
ATOM      7  C   UNL     1      -0.919  -0.345   0.288  0.00  0.00    +0.013 A 
ATOM      8  C   UNL     1      -1.903   0.405  -0.383  0.00  0.00    -0.033 A 
ATOM      9  C   UNL     1      -1.504   1.350  -1.345  0.00  0.00    +0.005 A 
ATOM     10  C   UNL     1      -0.151   1.542  -1.637  0.00  0.00    +0.009 A 
ENDROOT
BRANCH   1  12
ATOM     11  C   UNL     1       5.611  -0.226  -0.323  0.00  0.00    +0.277 C 
ATOM     12  O   UNL     1       4.513   0.459  -0.918  0.00  0.00    -0.495 OA
ENDBRANCH   1  12
BRANCH   8  13
ATOM     13  C   UNL     1      -3.375   0.215  -0.075  0.00  0.00    +0.124 C 
ATOM     14  C   UNL     1      -3.697   0.629   1.365  0.00  0.00    +0.024 C 
BRANCH  13  15
ATOM     15  C   UNL     1      -3.796  -1.204  -0.351  0.00  0.00    +0.312 C 
ATOM     16  O   UNL     1      -4.236  -1.515  -1.490  0.00  0.00    -0.250 OA
BRANCH  15  17
ATOM     17  O   UNL     1      -3.656  -2.187   0.625  0.00  0.00    -0.480 OA
ATOM     18  H   UNL     1      -3.920  -3.147   0.438  0.00  0.00    +0.295 HD
ENDBRANCH  15  17
ENDBRANCH  13  15
ENDBRANCH   8  13
TORSDOF 4
