REMARK  Name = 
REMARK  7 active torsions:
REMARK  status: ('A' for Active; 'I' for Inactive)
REMARK    1  A    between atoms: C_1  and  N_2
REMARK    2  A    between atoms: N_2  and  S_3
REMARK    3  A    between atoms: S_3  and  C_6
REMARK    4  A    between atoms: C_6  and  C_7
REMARK    5  A    between atoms: C_7  and  C_8
REMARK    6  A    between atoms: C_14  and  C_15
REMARK    7  A    between atoms: N_18  and  C_19
REMARK                            x       y       z     vdW  Elec       q    Type
REMARK                         _______ _______ _______ _____ _____    ______ ____
ROOT
ATOM      1  C   UNL     1       2.318  -0.447  -1.483  0.00  0.00    -0.045 A 
ATOM      2  C   UNL     1       1.028  -0.336  -0.920  0.00  0.00    +0.014 A 
ATOM      3  C   UNL     1      -0.073  -0.489  -1.764  0.00  0.00    +0.003 A 
ATOM      4  C   UNL     1       0.076  -0.744  -3.103  0.00  0.00    +0.047 A 
ATOM      5  N   UNL     1      -1.117  -0.883  -3.704  0.00  0.00    -0.360 N 
ATOM      6  C   UNL     1      -2.045  -0.716  -2.735  0.00  0.00    +0.087 A 
ATOM      7  C   UNL     1      -1.433  -0.450  -1.510  0.00  0.00    -0.019 A 
ATOM      8  C   UNL     1       1.333  -0.850  -3.693  0.00  0.00    +0.026 A 
ATOM      9  C   UNL     1       2.463  -0.690  -2.872  0.00  0.00    +0.006 A 
ATOM     10  H   UNL     1      -1.296  -1.096  -4.710  0.00  0.00    +0.165 HD
ENDROOT
BRANCH   7  11
ATOM     11  C   UNL     1      -2.107  -0.288  -0.169  0.00  0.00    +0.023 C 
ATOM     12  C   UNL     1      -2.494  -1.662   0.417  0.00  0.00    +0.023 C 
ATOM     13  C   UNL     1      -3.573  -1.547   1.512  0.00  0.00    +0.084 C 
ATOM     14  N   UNL     1      -3.558  -0.202   2.116  0.00  0.00    -0.305 NA
ATOM     15  C   UNL     1      -4.421  -0.163   3.306  0.00  0.00    +0.104 C 
ATOM     16  C   UNL     1      -3.987   0.825   1.137  0.00  0.00    +0.084 C 
ATOM     17  C   UNL     1      -3.338   0.629  -0.252  0.00  0.00    +0.023 C 
ENDBRANCH   7  11
BRANCH   1  18
ATOM     18  C   UNL     1       3.533  -0.247  -0.619  0.00  0.00    +0.059 C 
BRANCH  18  19
ATOM     19  C   UNL     1       3.917   1.234  -0.568  0.00  0.00    +0.189 C 
BRANCH  19  20
ATOM     20  S   UNL     1       5.266   1.531   0.575  0.00  0.00    +0.029 S 
ATOM     21  O   UNL     1       6.171   2.572  -0.020  0.00  0.00    -0.158 OA
ATOM     22  O   UNL     1       6.061   0.273   0.794  0.00  0.00    -0.158 OA
BRANCH  20  24
ATOM     23  C   UNL     1       3.790   1.137   2.717  0.00  0.00    +0.127 C 
ATOM     24  N   UNL     1       4.675   2.123   2.099  0.00  0.00    -0.198 NA
ATOM     25  H   UNL     1       4.111   2.982   1.902  0.00  0.00    +0.147 HD
ENDBRANCH  20  24
ENDBRANCH  19  20
ENDBRANCH  18  19
ENDBRANCH   1  18
TORSDOF 5
