REMARK  Name = 
REMARK  12 active torsions:
REMARK  status: ('A' for Active; 'I' for Inactive)
REMARK    1  A    between atoms: C_1  and  C_2
REMARK    2  A    between atoms: C_4  and  O_5
REMARK    3  A    between atoms: O_5  and  C_6
REMARK    4  A    between atoms: C_10  and  O_11
REMARK    5  A    between atoms: C_13  and  O_14
REMARK    6  A    between atoms: C_15  and  C_16
REMARK    7  A    between atoms: C_16  and  O_17
REMARK    8  A    between atoms: C_20  and  O_21
REMARK    9  A    between atoms: C_31  and  C_32
REMARK   10  A    between atoms: C_42  and  O_43
REMARK   11  A    between atoms: C_44  and  N_45
REMARK   12  A    between atoms: C_46  and  O_47
REMARK                            x       y       z     vdW  Elec       q    Type
REMARK                         _______ _______ _______ _____ _____    ______ ____
ROOT
ATOM      1  C   UNL     1      -2.892   0.259  -0.581  0.00  0.00    +0.147 C 
ATOM      2  C   UNL     1      -2.978  -1.243  -0.936  0.00  0.00    +0.068 C 
ATOM      3  C   UNL     1      -2.640  -2.204   0.227  0.00  0.00    +0.141 C 
ATOM      4  O   UNL     1      -1.349  -1.897   0.740  0.00  0.00    -0.344 OA
ATOM      5  C   UNL     1      -0.962  -2.776   1.797  0.00  0.00    +0.172 C 
ATOM      6  C   UNL     1      -0.818  -4.231   1.267  0.00  0.00    +0.097 C 
ATOM      7  C   UNL     1      -1.380  -4.393  -0.155  0.00  0.00    +0.136 C 
ATOM      8  C   UNL     1      -2.749  -3.690  -0.268  0.00  0.00    +0.155 C 
ATOM      9  C   UNL     1       0.385  -2.289   2.407  0.00  0.00    +0.096 C 
ATOM     10  C   UNL     1       1.486  -1.960   1.373  0.00  0.00    +0.122 C 
ATOM     11  C   UNL     1       2.852  -1.744   2.063  0.00  0.00    +0.066 C 
ATOM     12  C   UNL     1       3.892  -1.257   1.047  0.00  0.00    +0.154 C 
ATOM     13  O   UNL     1       5.189  -1.270   1.601  0.00  0.00    -0.364 OA
ATOM     14  C   UNL     1       4.926  -2.228   0.602  0.00  0.00    +0.171 C 
ATOM     15  C   UNL     1       5.496  -1.904  -0.753  0.00  0.00    +0.014 C 
ATOM     16  C   UNL     1       6.260  -0.832  -1.000  0.00  0.00    +0.090 C 
ATOM     17  C   UNL     1       6.580  -0.401  -2.363  0.00  0.00    +0.332 C 
ATOM     18  O   UNL     1       6.328  -1.144  -3.356  0.00  0.00    -0.246 OA
ATOM     19  O   UNL     1       7.071   0.890  -2.560  0.00  0.00    -0.458 OA
ATOM     20  C   UNL     1       6.438   1.806  -3.456  0.00  0.00    +0.177 C 
ATOM     21  C   UNL     1       7.335   2.032  -4.680  0.00  0.00    +0.052 C 
ATOM     22  C   UNL     1       6.139   3.139  -2.732  0.00  0.00    +0.071 C 
ATOM     23  C   UNL     1       5.843   2.949  -1.265  0.00  0.00    -0.023 C 
ATOM     24  C   UNL     1       4.655   2.597  -0.763  0.00  0.00    -0.004 C 
ATOM     25  C   UNL     1       3.426   2.442  -1.547  0.00  0.00    -0.000 C 
ATOM     26  C   UNL     1       3.079   1.264  -2.068  0.00  0.00    -0.000 C 
ATOM     27  C   UNL     1       1.665   0.952  -2.360  0.00  0.00    -0.000 C 
ATOM     28  C   UNL     1       0.703   1.268  -1.484  0.00  0.00    -0.000 C 
ATOM     29  C   UNL     1      -0.674   0.763  -1.607  0.00  0.00    -0.002 C 
ATOM     30  C   UNL     1      -1.473   0.753  -0.534  0.00  0.00    +0.004 C 
ENDROOT
BRANCH   5  31
ATOM     31  O   UNL     1      -1.923  -2.768   2.831  0.00  0.00    -0.364 OA
ATOM     32  H   UNL     1      -2.094  -1.821   3.071  0.00  0.00    +0.213 HD
ENDBRANCH   5  31
BRANCH   7  33
ATOM     33  O   UNL     1      -0.487  -3.833  -1.091  0.00  0.00    -0.391 OA
ATOM     34  H   UNL     1       0.275  -4.465  -1.186  0.00  0.00    +0.210 HD
ENDBRANCH   7  33
BRANCH   8  35
ATOM     35  C   UNL     1      -3.839  -4.443   0.466  0.00  0.00    +0.313 C 
ATOM     36  O   UNL     1      -4.919  -3.865   0.763  0.00  0.00    -0.251 OA
BRANCH  35  37
ATOM     37  O   UNL     1      -3.709  -5.806   0.723  0.00  0.00    -0.480 OA
ATOM     38  H   UNL     1      -4.434  -6.320   1.209  0.00  0.00    +0.295 HD
ENDBRANCH  35  37
ENDBRANCH   8  35
BRANCH  10  39
ATOM     39  O   UNL     1       1.126  -0.820   0.628  0.00  0.00    -0.392 OA
ATOM     40  H   UNL     1       1.134  -0.051   1.258  0.00  0.00    +0.210 HD
ENDBRANCH  10  39
BRANCH   1  41
ATOM     41  O   UNL     1      -3.489   0.481   0.690  0.00  0.00    -0.341 OA
BRANCH  41  45
ATOM     42  C   UNL     1      -5.280   4.743  -0.106  0.00  0.00    +0.041 C 
ATOM     43  C   UNL     1      -5.554   3.376   0.515  0.00  0.00    +0.148 C 
ATOM     44  O   UNL     1      -4.418   2.553   0.319  0.00  0.00    -0.343 OA
ATOM     45  C   UNL     1      -4.715   1.185   0.595  0.00  0.00    +0.281 C 
ATOM     46  C   UNL     1      -5.515   1.014   1.930  0.00  0.00    +0.189 C 
ATOM     47  C   UNL     1      -5.376   2.272   2.824  0.00  0.00    +0.116 C 
ATOM     48  C   UNL     1      -5.878   3.511   2.031  0.00  0.00    +0.162 C 
BRANCH  47  49
ATOM     49  N   UNL     1      -3.981   2.465   3.244  0.00  0.00    -0.323 NA
ATOM     50  H   UNL     1      -3.725   1.720   3.933  0.00  0.00    +0.119 HD
ATOM     51  H   UNL     1      -3.909   3.355   3.789  0.00  0.00    +0.119 HD
ENDBRANCH  47  49
BRANCH  46  52
ATOM     52  O   UNL     1      -5.202  -0.177   2.618  0.00  0.00    -0.385 OA
ATOM     53  H   UNL     1      -4.247  -0.153   2.877  0.00  0.00    +0.210 HD
ENDBRANCH  46  52
BRANCH  48  54
ATOM     54  O   UNL     1      -7.271   3.653   2.180  0.00  0.00    -0.388 OA
ATOM     55  H   UNL     1      -7.428   3.983   3.109  0.00  0.00    +0.210 HD
ENDBRANCH  48  54
ENDBRANCH  41  45
ENDBRANCH   1  41
TORSDOF 10
