REMARK  Name = 
REMARK  9 active torsions:
REMARK  status: ('A' for Active; 'I' for Inactive)
REMARK    1  A    between atoms: C_1  and  C_2
REMARK    2  A    between atoms: C_2  and  C_3
REMARK    3  A    between atoms: C_2  and  C_4
REMARK    4  A    between atoms: C_7  and  C_10
REMARK    5  A    between atoms: N_12  and  CA_13
REMARK    6  A    between atoms: CA_13  and  CB_14
REMARK    7  A    between atoms: CA_13  and  C_21
REMARK    8  A    between atoms: CB_14  and  CG_15
REMARK    9  A    between atoms: C_21  and  O_22
REMARK                            x       y       z     vdW  Elec       q    Type
REMARK                         _______ _______ _______ _____ _____    ______ ____
ROOT
ATOM      1  C   UNK A   0      -0.358   0.621  -0.225  0.00  0.00    +0.217 C 
ATOM      2  O   UNK A   0      -0.597   1.362   0.769  0.00  0.00    -0.275 OA
ATOM      3  N   PHE A   1      -1.442   0.075  -0.994  0.00  0.00    -0.302 N 
ATOM      4  H   PHE A   1      -1.217  -0.600  -1.760  0.00  0.00    +0.150 HD
ENDROOT
BRANCH   1   8
ATOM      5  C   UNK A   0       4.007   0.206   0.004  0.00  0.00    -0.008 C 
ATOM      6  C   UNK A   0       3.102  -1.047   0.138  0.00  0.00    +0.004 C 
ATOM      7  C   UNK A   0       1.652  -0.680   0.475  0.00  0.00    +0.013 C 
ATOM      8  C   UNK A   0       1.067   0.275  -0.573  0.00  0.00    +0.075 C 
ATOM      9  C   UNK A   0       1.931   1.540  -0.674  0.00  0.00    +0.013 C 
ATOM     10  C   UNK A   0       3.383   1.188  -1.022  0.00  0.00    +0.004 C 
BRANCH   5  12
ATOM     11  C   UNK A   0       6.380   1.051  -0.529  0.00  0.00    +0.007 C 
ATOM     12  C   UNK A   0       5.469  -0.184  -0.396  0.00  0.00    -0.014 C 
ATOM     13  C   UNK A   0       6.103  -1.159   0.615  0.00  0.00    +0.007 C 
ENDBRANCH   5  12
ENDBRANCH   1   8
BRANCH   3  14
ATOM     14  CA  PHE A   1      -2.844   0.294  -0.631  0.00  0.00    +0.186 C 
BRANCH  14  15
ATOM     15  C   PHE A   1      -3.708   0.192  -1.859  0.00  0.00    +0.326 C 
ATOM     16  OXT PHE A   1      -4.385   1.185  -2.239  0.00  0.00    -0.249 OA
BRANCH  15  17
ATOM     17  O   PHE A   1      -3.764  -0.999  -2.577  0.00  0.00    -0.479 OA
ATOM     18  H   PHE A   1      -4.346  -1.081  -3.403  0.00  0.00    +0.295 HD
ENDBRANCH  15  17
ENDBRANCH  14  15
BRANCH  14  19
ATOM     19  CB  PHE A   1      -3.269  -0.732   0.435  0.00  0.00    +0.069 C 
BRANCH  19  20
ATOM     20  CG  PHE A   1      -4.654  -0.448   0.961  0.00  0.00    -0.045 A 
ATOM     21  CD1 PHE A   1      -5.767  -1.132   0.444  0.00  0.00    +0.004 A 
ATOM     22  CE1 PHE A   1      -7.052  -0.844   0.914  0.00  0.00    +0.000 A 
ATOM     23  CZ  PHE A   1      -7.236   0.131   1.898  0.00  0.00    +0.000 A 
ATOM     24  CE2 PHE A   1      -6.135   0.822   2.412  0.00  0.00    +0.000 A 
ATOM     25  CD2 PHE A   1      -4.848   0.537   1.944  0.00  0.00    +0.004 A 
ENDBRANCH  19  20
ENDBRANCH  14  19
ENDBRANCH   3  14
TORSDOF 7
