REMARK  Name = 
REMARK  8 active torsions:
REMARK  status: ('A' for Active; 'I' for Inactive)
REMARK    1  A    between atoms: O_1  and  C_2
REMARK    2  A    between atoms: C_2  and  C_3
REMARK    3  A    between atoms: C_2  and  C_19
REMARK    4  A    between atoms: C_3  and  N_4
REMARK    5  A    between atoms: N_4  and  C_5
REMARK    6  A    between atoms: C_5  and  C_6
REMARK    7  A    between atoms: C_6  and  O_7
REMARK    8  A    between atoms: C_6  and  C_8
REMARK                            x       y       z     vdW  Elec       q    Type
REMARK                         _______ _______ _______ _____ _____    ______ ____
ROOT
ATOM      1  N   UNL     1       0.121  -0.696   2.002  0.00  0.00    -0.311 NA
ATOM      2  H   UNL     1       0.091  -1.511   2.658  0.00  0.00    +0.122 HD
ENDROOT
BRANCH   1   3
ATOM      3  C   UNL     1       1.409  -0.744   1.293  0.00  0.00    +0.116 C 
BRANCH   3   4
ATOM      4  C   UNL     1       1.714   0.605   0.608  0.00  0.00    +0.169 C 
BRANCH   4   5
ATOM      5  C   UNL     1       3.116   0.643  -0.043  0.00  0.00    +0.203 C 
ATOM      6  C   UNL     1       3.243  -0.297  -1.258  0.00  0.00    +0.052 C 
ATOM      7  C   UNL     1       4.651  -0.182  -1.858  0.00  0.00    +0.042 C 
ATOM      8  C   UNL     1       5.716  -0.332  -0.800  0.00  0.00    -0.003 A 
ATOM      9  C   UNL     1       5.420  -0.043   0.548  0.00  0.00    +0.124 A 
ATOM     10  O   UNL     1       4.126   0.340   0.922  0.00  0.00    -0.486 OA
ATOM     11  C   UNL     1       6.415  -0.163   1.524  0.00  0.00    +0.049 A 
ATOM     12  C   UNL     1       7.709  -0.547   1.162  0.00  0.00    +0.042 A 
ATOM     13  C   UNL     1       8.013  -0.813  -0.177  0.00  0.00    +0.124 A 
ATOM     14  F   UNL     1       9.272  -1.178  -0.525  0.00  0.00    -0.205 F 
ATOM     15  C   UNL     1       7.022  -0.701  -1.157  0.00  0.00    +0.045 A 
ENDBRANCH   4   5
BRANCH   4  16
ATOM     16  O   UNL     1       1.622   1.628   1.567  0.00  0.00    -0.387 OA
ATOM     17  H   UNL     1       1.467   2.475   1.072  0.00  0.00    +0.210 HD
ENDBRANCH   4  16
ENDBRANCH   3   4
ENDBRANCH   1   3
BRANCH   1  18
ATOM     18  C   UNL     1      -1.038  -0.790   1.093  0.00  0.00    +0.116 C 
BRANCH  18  19
ATOM     19  C   UNL     1      -1.878   0.495   1.186  0.00  0.00    +0.169 C 
BRANCH  19  20
ATOM     20  C   UNL     1      -3.030   0.474   0.164  0.00  0.00    +0.203 C 
ATOM     21  C   UNL     1      -3.778   1.820   0.131  0.00  0.00    +0.052 C 
ATOM     22  C   UNL     1      -4.937   1.754  -0.874  0.00  0.00    +0.042 C 
ATOM     23  C   UNL     1      -5.793   0.532  -0.653  0.00  0.00    -0.003 A 
ATOM     24  C   UNL     1      -5.256  -0.600  -0.008  0.00  0.00    +0.124 A 
ATOM     25  O   UNL     1      -3.943  -0.583   0.474  0.00  0.00    -0.486 OA
ATOM     26  C   UNL     1      -6.046  -1.740   0.175  0.00  0.00    +0.049 A 
ATOM     27  C   UNL     1      -7.360  -1.767  -0.299  0.00  0.00    +0.042 A 
ATOM     28  C   UNL     1      -7.891  -0.653  -0.959  0.00  0.00    +0.124 A 
ATOM     29  F   UNL     1      -9.163  -0.685  -1.424  0.00  0.00    -0.205 F 
ATOM     30  C   UNL     1      -7.109   0.492  -1.140  0.00  0.00    +0.045 A 
ENDBRANCH  19  20
BRANCH  19  31
ATOM     31  O   UNL     1      -2.403   0.628   2.483  0.00  0.00    -0.387 OA
ATOM     32  H   UNL     1      -1.693   1.039   3.043  0.00  0.00    +0.210 HD
ENDBRANCH  19  31
ENDBRANCH  18  19
ENDBRANCH   1  18
TORSDOF 8
