REMARK  Name = 
REMARK  9 active torsions:
REMARK  status: ('A' for Active; 'I' for Inactive)
REMARK    1  A    between atoms: C_1  and  C_2
REMARK    2  A    between atoms: C_2  and  C_3
REMARK    3  A    between atoms: C_3  and  C_4
REMARK    4  A    between atoms: N_6  and  C_7
REMARK    5  A    between atoms: C_7  and  C_8
REMARK    6  A    between atoms: C_9  and  C_25
REMARK    7  A    between atoms: C_18  and  C_22
REMARK    8  A    between atoms: C_22  and  O_23
REMARK    9  A    between atoms: C_25  and  O_26
REMARK                            x       y       z     vdW  Elec       q    Type
REMARK                         _______ _______ _______ _____ _____    ______ ____
ROOT
ATOM      1  C   UNL     1       0.374   0.202   0.319  0.00  0.00    +0.020 A 
ATOM      2  C   UNL     1      -0.834  -0.574   0.337  0.00  0.00    +0.060 A 
ATOM      3  N   UNL     1      -2.106  -0.012   0.361  0.00  0.00    -0.335 N 
ATOM      4  C   UNL     1      -3.195  -0.778  -0.005  0.00  0.00    +0.131 A 
ATOM      5  C   UNL     1      -3.072  -2.160  -0.149  0.00  0.00    +0.084 A 
ATOM      6  C   UNL     1      -1.851  -2.775   0.070  0.00  0.00    +0.190 A 
ATOM      7  O   UNL     1      -1.780  -4.034   0.017  0.00  0.00    -0.287 OA
ATOM      8  C   UNL     1      -0.714  -1.993   0.319  0.00  0.00    +0.046 A 
ATOM      9  C   UNL     1       0.528  -2.605   0.540  0.00  0.00    +0.029 A 
ATOM     10  C   UNL     1       1.679  -1.837   0.720  0.00  0.00    +0.065 A 
ATOM     11  C   UNL     1       1.611  -0.437   0.580  0.00  0.00    +0.145 A 
ATOM     12  O   UNL     1       2.727   0.286   0.673  0.00  0.00    -0.448 OA
ATOM     13  C   UNL     1       3.926  -0.237   0.911  0.00  0.00    +0.215 A 
ATOM     14  C   UNL     1       4.062  -1.620   1.075  0.00  0.00    +0.105 A 
ATOM     15  C   UNL     1       2.931  -2.427   0.973  0.00  0.00    +0.193 A 
ATOM     16  O   UNL     1       3.048  -3.676   1.105  0.00  0.00    -0.287 OA
ENDROOT
BRANCH   3  17
ATOM     17  C   UNL     1      -2.368   1.203   1.173  0.00  0.00    +0.119 C 
ATOM     18  C   UNL     1      -2.811   2.411   0.336  0.00  0.00    +0.027 C 
ENDBRANCH   3  17
BRANCH  13  19
ATOM     19  C   UNL     1       5.093   0.655   0.996  0.00  0.00    +0.373 C 
ATOM     20  O   UNL     1       4.944   1.896   0.839  0.00  0.00    -0.242 OA
BRANCH  19  21
ATOM     21  O   UNL     1       6.362   0.141   1.248  0.00  0.00    -0.475 OA
ATOM     22  H   UNL     1       7.168   0.751   1.307  0.00  0.00    +0.296 HD
ENDBRANCH  19  21
ENDBRANCH  13  19
BRANCH   4  23
ATOM     23  C   UNL     1      -4.539  -0.201  -0.196  0.00  0.00    +0.354 C 
ATOM     24  O   UNL     1      -5.506  -0.612   0.499  0.00  0.00    -0.243 OA
BRANCH  23  25
ATOM     25  O   UNL     1      -4.755   0.743  -1.194  0.00  0.00    -0.476 OA
ATOM     26  H   UNL     1      -5.677   1.131  -1.352  0.00  0.00    +0.295 HD
ENDBRANCH  23  25
ENDBRANCH   4  23
BRANCH   1  27
ATOM     27  C   UNL     1       0.431   1.607  -0.277  0.00  0.00    +0.041 C 
BRANCH  27  29
ATOM     28  C   UNL     1       1.198   0.905  -2.599  0.00  0.00    +0.004 C 
ATOM     29  C   UNL     1       0.111   1.601  -1.780  0.00  0.00    +0.001 C 
ENDBRANCH  27  29
ENDBRANCH   1  27
TORSDOF 7
