REMARK  Name = 
REMARK  11 active torsions:
REMARK  status: ('A' for Active; 'I' for Inactive)
REMARK    1  A    between atoms: C_1  and  C_2
REMARK    2  A    between atoms: C_2  and  C_3
REMARK    3  A    between atoms: N_5  and  C_6
REMARK    4  A    between atoms: C_6  and  C_7
REMARK    5  A    between atoms: C_7  and  C_8
REMARK    6  A    between atoms: C_8  and  N_9
REMARK    7  A    between atoms: N_12  and  C_15
REMARK    8  A    between atoms: N_24  and  C_25
REMARK    9  A    between atoms: C_25  and  C_26
REMARK   10  A    between atoms: C_26  and  O_27
REMARK   11  A    between atoms: O_27  and  C_28
REMARK                            x       y       z     vdW  Elec       q    Type
REMARK                         _______ _______ _______ _____ _____    ______ ____
ROOT
ATOM      1  C   UNL     1      -2.691   2.511  -0.076  0.00  0.00    +0.134 A 
ATOM      2  N   UNL     1      -1.655   1.901   0.548  0.00  0.00    -0.154 NA
ATOM      3  N   UNL     1      -1.415   0.792  -0.134  0.00  0.00    -0.213 N 
ATOM      4  C   UNL     1      -2.287   0.737  -1.155  0.00  0.00    +0.347 A 
ATOM      5  O   UNL     1      -2.333  -0.196  -2.002  0.00  0.00    -0.245 OA
ATOM      6  N   UNL     1      -3.108   1.802  -1.153  0.00  0.00    -0.276 N 
ENDROOT
BRANCH   1   8
ATOM      7  C   UNL     1      -2.508   4.484   1.486  0.00  0.00    +0.012 C 
ATOM      8  C   UNL     1      -3.332   3.786   0.406  0.00  0.00    +0.073 C 
ENDBRANCH   1   8
BRANCH   3   9
ATOM      9  C   UNL     1      -0.331  -0.140   0.163  0.00  0.00    +0.150 C 
BRANCH   9  10
ATOM     10  C   UNL     1       0.942   0.282  -0.577  0.00  0.00    +0.039 C 
BRANCH  10  11
ATOM     11  C   UNL     1       2.090  -0.714  -0.366  0.00  0.00    +0.086 C 
BRANCH  11  12
ATOM     12  N   UNL     1       2.417  -0.869   1.071  0.00  0.00    -0.299 NA
ATOM     13  C   UNL     1       3.035  -2.163   1.379  0.00  0.00    +0.103 C 
ATOM     14  C   UNL     1       4.396  -2.338   0.697  0.00  0.00    +0.120 C 
ATOM     15  N   UNL     1       5.231  -1.117   0.675  0.00  0.00    -0.327 N 
ATOM     16  C   UNL     1       4.689   0.212   1.039  0.00  0.00    +0.120 C 
ATOM     17  C   UNL     1       3.261   0.206   1.611  0.00  0.00    +0.103 C 
BRANCH  15  18
ATOM     18  C   UNL     1       6.591  -1.204   0.142  0.00  0.00    +0.031 A 
ATOM     19  C   UNL     1       7.440  -0.069   0.103  0.00  0.00    +0.043 A 
ATOM     20  C   UNL     1       8.740  -0.157  -0.408  0.00  0.00    +0.043 A 
ATOM     21 CL   UNL     1       9.766   1.267  -0.443  0.00  0.00    -0.083 Cl
ATOM     22  C   UNL     1       9.223  -1.371  -0.893  0.00  0.00    +0.020 A 
ATOM     23  C   UNL     1       8.407  -2.501  -0.872  0.00  0.00    +0.003 A 
ATOM     24  C   UNL     1       7.107  -2.423  -0.364  0.00  0.00    +0.023 A 
ENDBRANCH  15  18
ENDBRANCH  11  12
ENDBRANCH  10  11
ENDBRANCH   9  10
ENDBRANCH   3   9
BRANCH   6  25
ATOM     25  C   UNL     1      -4.248   2.055  -2.037  0.00  0.00    +0.169 C 
BRANCH  25  26
ATOM     26  C   UNL     1      -5.531   1.484  -1.439  0.00  0.00    +0.250 C 
BRANCH  26  27
ATOM     27  O   UNL     1      -5.406   0.073  -1.285  0.00  0.00    -0.490 OA
BRANCH  27  28
ATOM     28  C   UNL     1      -6.394  -0.756  -0.736  0.00  0.00    +0.121 A 
ATOM     29  C   UNL     1      -7.638  -0.261  -0.294  0.00  0.00    +0.045 A 
ATOM     30  C   UNL     1      -8.589  -1.131   0.247  0.00  0.00    +0.004 A 
ATOM     31  C   UNL     1      -8.311  -2.496   0.353  0.00  0.00    +0.000 A 
ATOM     32  C   UNL     1      -7.080  -2.994  -0.083  0.00  0.00    +0.004 A 
ATOM     33  C   UNL     1      -6.126  -2.127  -0.625  0.00  0.00    +0.045 A 
ENDBRANCH  27  28
ENDBRANCH  26  27
ENDBRANCH  25  26
ENDBRANCH   6  25
TORSDOF 10
