REMARK  Name = 
REMARK  7 active torsions:
REMARK  status: ('A' for Active; 'I' for Inactive)
REMARK    1  A    between atoms: C_1  and  O_2
REMARK    2  A    between atoms: O_2  and  C_3
REMARK    3  A    between atoms: N_12  and  C1*_13
REMARK    4  A    between atoms: C4*_15  and  C5*_16
REMARK    5  A    between atoms: C5*_16  and  O5*_17
REMARK    6  A    between atoms: C3*_18  and  O3*_19
REMARK    7  A    between atoms: C2*_20  and  O2*_21
REMARK                            x       y       z     vdW  Elec       q    Type
REMARK                         _______ _______ _______ _____ _____    ______ ____
ROOT
ATOM      1  C   UNL     1       3.369   0.417   0.498  0.00  0.00    +0.247 A 
ATOM      2  N   UNL     1       3.860  -0.065  -0.685  0.00  0.00    -0.178 NA
ATOM      3  C   UNL     1       3.026  -0.408  -1.722  0.00  0.00    +0.218 A 
ATOM      4  N   UNL     1       3.575  -0.910  -2.938  0.00  0.00    -0.327 N 
ATOM      5  N   UNL     1       1.671  -0.272  -1.591  0.00  0.00    -0.195 NA
ATOM      6  C   UNL     1       1.191   0.213  -0.420  0.00  0.00    +0.171 A 
ATOM      7  C   UNL     1       1.994   0.552   0.613  0.00  0.00    +0.169 A 
ATOM      8  N   UNL     1       1.263   0.971   1.663  0.00  0.00    -0.229 NA
ATOM      9  C   UNL     1      -0.014   0.865   1.201  0.00  0.00    +0.203 A 
ATOM     10  N   UNL     1      -0.088   0.411  -0.079  0.00  0.00    -0.285 N 
ATOM     11  H   UNL     1       4.608  -1.018  -3.046  0.00  0.00    +0.145 HD
ATOM     12  H   UNL     1       2.949  -1.174  -3.731  0.00  0.00    +0.145 HD
ENDROOT
BRANCH  10  13
ATOM     13  C1* UNL     1      -1.289   0.101  -0.861  0.00  0.00    +0.253 C 
ATOM     14  O4* UNL     1      -2.271   1.090  -0.625  0.00  0.00    -0.346 OA
ATOM     15  C4* UNL     1      -3.428   0.442  -0.144  0.00  0.00    +0.177 C 
ATOM     16  C3* UNL     1      -3.029  -0.928   0.383  0.00  0.00    +0.178 C 
ATOM     17  C2* UNL     1      -1.862  -1.275  -0.503  0.00  0.00    +0.195 C 
BRANCH  16  18
ATOM     18  O3* UNL     1      -4.080  -1.846   0.233  0.00  0.00    -0.386 OA
ATOM     19  H3* UNL     1      -3.825  -2.653   0.752  0.00  0.00    +0.210 HD
ENDBRANCH  16  18
BRANCH  17  20
ATOM     20  O2* UNL     1      -0.929  -2.086   0.165  0.00  0.00    -0.385 OA
ATOM     21  H2* UNL     1      -1.313  -3.001   0.183  0.00  0.00    +0.210 HD
ENDBRANCH  17  20
BRANCH  15  22
ATOM     22  C5* UNL     1      -4.101   1.297   0.937  0.00  0.00    +0.190 C 
BRANCH  22  23
ATOM     23  O5* UNL     1      -4.477   2.542   0.412  0.00  0.00    -0.392 OA
ATOM     24  H5* UNL     1      -5.293   2.386  -0.132  0.00  0.00    +0.210 HD
ENDBRANCH  22  23
ENDBRANCH  15  22
ENDBRANCH  10  13
BRANCH   1  26
ATOM     25  C   UNL     1       5.628   0.635   1.480  0.00  0.00    +0.279 C 
ATOM     26  O   UNL     1       4.213   0.760   1.557  0.00  0.00    -0.478 OA
ENDBRANCH   1  26
TORSDOF 6
