REMARK  Name = 
REMARK  16 active torsions:
REMARK  status: ('A' for Active; 'I' for Inactive)
REMARK    1  A    between atoms: N_8  and  C_9
REMARK    2  A    between atoms: C_9  and  C_10
REMARK    3  A    between atoms: C_10  and  O_11
REMARK    4  A    between atoms: C_10  and  C_12
REMARK    5  A    between atoms: C_12  and  C_13
REMARK    6  A    between atoms: C_12  and  N_21
REMARK    7  A    between atoms: C_13  and  S_14
REMARK    8  A    between atoms: S_14  and  C_15
REMARK    9  A    between atoms: C_22  and  C_24
REMARK   10  A    between atoms: C_25  and  C_26
REMARK   11  A    between atoms: C_27  and  O_28
REMARK   12  A    between atoms: C_32  and  C_34
REMARK   13  A    between atoms: N_36  and  C_37
REMARK   14  A    between atoms: C_37  and  C_38
REMARK   15  A    between atoms: C_37  and  C_39
REMARK   16  A    between atoms: C_37  and  C_40
REMARK                            x       y       z     vdW  Elec       q    Type
REMARK                         _______ _______ _______ _____ _____    ______ ____
ROOT
ATOM      1  C   UNL     1       0.503   0.454   0.107  0.00  0.00    +0.149 C 
ENDROOT
BRANCH   1   2
ATOM      2  O   UNL     1      -0.284   1.604   0.289  0.00  0.00    -0.389 OA
ATOM      3  H   UNL     1       0.018   2.278  -0.376  0.00  0.00    +0.210 HD
ENDBRANCH   1   2
BRANCH   1   4
ATOM      4  C   UNL     1      -0.357  -0.805   0.399  0.00  0.00    +0.118 C 
BRANCH   4  12
ATOM      5  C   UNL     1      -3.090   0.576  -2.504  0.00  0.00    -0.005 C 
ATOM      6  C   UNL     1      -3.911   0.366  -3.791  0.00  0.00    +0.004 C 
ATOM      7  C   UNL     1      -3.359   1.202  -4.960  0.00  0.00    +0.000 C 
ATOM      8  C   UNL     1      -1.818   1.279  -4.994  0.00  0.00    +0.000 C 
ATOM      9  C   UNL     1      -1.164   0.152  -4.189  0.00  0.00    +0.005 C 
ATOM     10  C   UNL     1      -1.575   0.231  -2.702  0.00  0.00    +0.006 C 
ATOM     11  C   UNL     1      -1.173  -1.064  -1.964  0.00  0.00    +0.089 C 
ATOM     12  N   UNL     1      -1.503  -1.010  -0.520  0.00  0.00    -0.289 NA
ATOM     13  C   UNL     1      -2.748  -0.289  -0.150  0.00  0.00    +0.143 C 
ATOM     14  C   UNL     1      -3.725  -0.202  -1.334  0.00  0.00    +0.032 C 
BRANCH  13  15
ATOM     15  C   UNL     1      -3.424  -0.996   0.997  0.00  0.00    +0.231 C 
ATOM     16  O   UNL     1      -3.425  -2.256   1.031  0.00  0.00    -0.274 OA
ATOM     17  N   UNL     1      -4.099  -0.231   2.013  0.00  0.00    -0.309 N 
ATOM     18  H   UNL     1      -4.139   0.805   1.870  0.00  0.00    +0.149 HD
BRANCH  17  19
ATOM     19  C   UNL     1      -4.696  -0.796   3.239  0.00  0.00    +0.026 C 
ATOM     20  C   UNL     1      -5.840  -1.764   2.880  0.00  0.00    +0.031 C 
ATOM     21  C   UNL     1      -5.276   0.354   4.090  0.00  0.00    +0.031 C 
ATOM     22  C   UNL     1      -3.617  -1.521   4.067  0.00  0.00    +0.031 C 
ENDBRANCH  17  19
ENDBRANCH  13  15
ENDBRANCH   4  12
ENDBRANCH   1   4
BRANCH   1  23
ATOM     23  C   UNL     1       1.725   0.512   1.061  0.00  0.00    +0.113 C 
BRANCH  23  24
ATOM     24  N   UNL     1       2.630  -0.621   0.820  0.00  0.00    -0.305 N 
ATOM     25  C   UNL     1       2.821  -1.685   1.765  0.00  0.00    +0.245 C 
ATOM     26  O   UNL     1       2.106  -1.748   2.802  0.00  0.00    -0.270 OA
ATOM     27  H   UNL     1       3.190  -0.630  -0.061  0.00  0.00    +0.149 HD
BRANCH  25  28
ATOM     28  C   UNL     1       3.906  -2.675   1.580  0.00  0.00    +0.043 A 
ATOM     29  C   UNL     1       4.099  -3.397   0.369  0.00  0.00    +0.003 A 
ATOM     30  C   UNL     1       3.117  -3.297  -0.774  0.00  0.00    +0.048 C 
ATOM     31  C   UNL     1       5.232  -4.241   0.247  0.00  0.00    +0.120 A 
ATOM     32  C   UNL     1       6.093  -4.418   1.333  0.00  0.00    +0.046 A 
ATOM     33  C   UNL     1       5.865  -3.753   2.534  0.00  0.00    +0.004 A 
ATOM     34  C   UNL     1       4.783  -2.885   2.656  0.00  0.00    +0.013 A 
BRANCH  31  35
ATOM     35  O   UNL     1       5.537  -4.913  -0.938  0.00  0.00    -0.506 OA
ATOM     36  H   UNL     1       5.022  -4.791  -1.799  0.00  0.00    +0.292 HD
ENDBRANCH  31  35
ENDBRANCH  25  28
ENDBRANCH  23  24
BRANCH  23  37
ATOM     37  C   UNL     1       2.512   1.834   0.949  0.00  0.00    +0.099 C 
BRANCH  37  38
ATOM     38  S   UNL     1       3.145   2.130  -0.744  0.00  0.00    -0.123 S 
BRANCH  38  39
ATOM     39  C   UNL     1       3.682   3.802  -0.386  0.00  0.00    +0.008 A 
ATOM     40  C   UNL     1       2.802   4.875  -0.575  0.00  0.00    +0.015 A 
ATOM     41  C   UNL     1       3.222   6.180  -0.298  0.00  0.00    +0.001 A 
ATOM     42  C   UNL     1       4.519   6.414   0.168  0.00  0.00    +0.000 A 
ATOM     43  C   UNL     1       5.400   5.344   0.354  0.00  0.00    +0.001 A 
ATOM     44  C   UNL     1       4.982   4.039   0.077  0.00  0.00    +0.015 A 
ENDBRANCH  38  39
ENDBRANCH  37  38
ENDBRANCH  23  37
ENDBRANCH   1  23
TORSDOF 12
