REMARK  Name = 
REMARK  22 active torsions:
REMARK  status: ('A' for Active; 'I' for Inactive)
REMARK    1  A    between atoms: N_1  and  C_2
REMARK    2  A    between atoms: C_2  and  C_3
REMARK    3  A    between atoms: C_5  and  O_6
REMARK    4  A    between atoms: O_6  and  C_7
REMARK    5  A    between atoms: C_8  and  C_9
REMARK    6  A    between atoms: C_9  and  O_10
REMARK    7  A    between atoms: C_12  and  O_13
REMARK    8  A    between atoms: O_13  and  C_14
REMARK    9  A    between atoms: C_15  and  O_16
REMARK   10  A    between atoms: C_17  and  N_18
REMARK   11  A    between atoms: C_20  and  N_21
REMARK   12  A    between atoms: C_22  and  O_23
REMARK   13  A    between atoms: O_23  and  C_24
REMARK   14  A    between atoms: C_26  and  C_27
REMARK   15  A    between atoms: C_27  and  N_28
REMARK   16  A    between atoms: C_29  and  O_30
REMARK   17  A    between atoms: C_31  and  O_32
REMARK   18  A    between atoms: C_33  and  N_34
REMARK   19  A    between atoms: C_35  and  O_36
REMARK   20  A    between atoms: C_37  and  N_38
REMARK   21  A    between atoms: C_39  and  O_40
REMARK   22  A    between atoms: C_41  and  O_42
REMARK                            x       y       z     vdW  Elec       q    Type
REMARK                         _______ _______ _______ _____ _____    ______ ____
ROOT
ATOM      1  C   UNL     1      -1.353  -2.466  -0.034  0.00  0.00    +0.182 C 
ATOM      2  C   UNL     1      -1.365  -3.970  -0.372  0.00  0.00    +0.163 C 
ATOM      3  C   UNL     1      -2.362  -4.727   0.534  0.00  0.00    +0.084 C 
ATOM      4  C   UNL     1      -3.768  -4.133   0.386  0.00  0.00    +0.042 C 
ATOM      5  C   UNL     1      -3.777  -2.631   0.733  0.00  0.00    +0.084 C 
ATOM      6  C   UNL     1      -2.762  -1.843  -0.137  0.00  0.00    +0.169 C 
ENDROOT
BRANCH   3   7
ATOM      7  N   UNL     1      -2.403  -6.157   0.210  0.00  0.00    -0.325 NA
ATOM      8  H   UNL     1      -1.494  -6.592   0.486  0.00  0.00    +0.119 HD
ATOM      9  H   UNL     1      -2.517  -6.280  -0.823  0.00  0.00    +0.119 HD
ENDBRANCH   3   7
BRANCH   5  10
ATOM     10  N   UNL     1      -5.126  -2.085   0.566  0.00  0.00    -0.325 NA
ATOM     11  H   UNL     1      -5.774  -2.575   1.225  0.00  0.00    +0.119 HD
ATOM     12  H   UNL     1      -5.462  -2.276  -0.406  0.00  0.00    +0.119 HD
ENDBRANCH   5  10
BRANCH   2  13
ATOM     13  O   UNL     1      -0.070  -4.484  -0.190  0.00  0.00    -0.388 OA
ATOM     14  H   UNL     1       0.064  -5.195  -0.870  0.00  0.00    +0.210 HD
ENDBRANCH   2  13
BRANCH   1  15
ATOM     15  O   UNL     1      -0.505  -1.809  -0.967  0.00  0.00    -0.340 OA
BRANCH  15  19
ATOM     16  C   UNL     1       2.748  -0.347  -1.019  0.00  0.00    +0.186 C 
ATOM     17  C   UNL     1       1.733   0.706  -0.558  0.00  0.00    +0.178 C 
ATOM     18  O   UNL     1       0.551   0.059  -0.122  0.00  0.00    -0.341 OA
ATOM     19  C   UNL     1       0.689  -1.322  -0.379  0.00  0.00    +0.282 C 
ATOM     20  C   UNL     1       1.841  -1.502  -1.358  0.00  0.00    +0.202 C 
BRANCH  20  21
ATOM     21  O   UNL     1       2.472  -2.759  -1.267  0.00  0.00    -0.384 OA
ATOM     22  H   UNL     1       2.688  -2.942  -0.316  0.00  0.00    +0.210 HD
ENDBRANCH  20  21
BRANCH  16  23
ATOM     23  O   UNL     1       3.593  -0.688   0.070  0.00  0.00    -0.341 OA
BRANCH  23  26
ATOM     24  C   UNL     1       5.965   1.963   0.177  0.00  0.00    +0.166 C 
ATOM     25  O   UNL     1       4.752   1.311  -0.139  0.00  0.00    -0.343 OA
ATOM     26  C   UNL     1       4.880  -0.110  -0.063  0.00  0.00    +0.270 C 
ATOM     27  C   UNL     1       5.773  -0.585   1.130  0.00  0.00    +0.139 C 
ATOM     28  C   UNL     1       5.755   0.483   2.245  0.00  0.00    +0.167 C 
ATOM     29  C   UNL     1       6.222   1.862   1.705  0.00  0.00    +0.175 C 
BRANCH  27  30
ATOM     30  N   UNL     1       5.323  -1.882   1.645  0.00  0.00    -0.321 NA
ATOM     31  H   UNL     1       6.013  -2.219   2.355  0.00  0.00    +0.119 HD
ATOM     32  H   UNL     1       5.363  -2.574   0.863  0.00  0.00    +0.119 HD
ENDBRANCH  27  30
BRANCH  28  33
ATOM     33  O   UNL     1       6.535   0.094   3.348  0.00  0.00    -0.387 OA
ATOM     34  H   UNL     1       7.461  -0.051   3.026  0.00  0.00    +0.210 HD
ENDBRANCH  28  33
BRANCH  29  35
ATOM     35  O   UNL     1       5.542   2.884   2.391  0.00  0.00    -0.387 OA
ATOM     36  H   UNL     1       5.936   2.927   3.301  0.00  0.00    +0.210 HD
ENDBRANCH  29  35
BRANCH  24  37
ATOM     37  C   UNL     1       5.899   3.413  -0.332  0.00  0.00    +0.112 C 
BRANCH  37  38
ATOM     38  N   UNL     1       7.141   4.124  -0.038  0.00  0.00    -0.328 NA
ATOM     39  H   UNL     1       7.017   5.118  -0.340  0.00  0.00    +0.118 HD
ATOM     40  H   UNL     1       7.897   3.721  -0.638  0.00  0.00    +0.118 HD
ENDBRANCH  37  38
ENDBRANCH  24  37
ENDBRANCH  23  26
ENDBRANCH  16  23
BRANCH  17  41
ATOM     41  C   UNL     1       1.396   1.690  -1.685  0.00  0.00    +0.190 C 
BRANCH  41  42
ATOM     42  O   UNL     1       0.555   2.696  -1.199  0.00  0.00    -0.392 OA
ATOM     43  H   UNL     1       0.371   3.296  -1.966  0.00  0.00    +0.210 HD
ENDBRANCH  41  42
ENDBRANCH  17  41
ENDBRANCH  15  19
ENDBRANCH   1  15
BRANCH   6  44
ATOM     44  O   UNL     1      -2.656  -0.504   0.330  0.00  0.00    -0.342 OA
BRANCH  44  45
ATOM     45  C   UNL     1      -3.586   0.386  -0.268  0.00  0.00    +0.270 C 
ATOM     46  O   UNL     1      -4.576   0.710   0.700  0.00  0.00    -0.343 OA
ATOM     47  C   UNL     1      -5.320   1.902   0.437  0.00  0.00    +0.166 C 
ATOM     48  C   UNL     1      -5.267   2.379  -1.044  0.00  0.00    +0.175 C 
ATOM     49  C   UNL     1      -3.802   2.578  -1.505  0.00  0.00    +0.167 C 
ATOM     50  C   UNL     1      -2.826   1.641  -0.745  0.00  0.00    +0.139 C 
BRANCH  50  51
ATOM     51  N   UNL     1      -2.238   2.340   0.405  0.00  0.00    -0.321 NA
ATOM     52  H   UNL     1      -1.716   3.177   0.057  0.00  0.00    +0.119 HD
ATOM     53  H   UNL     1      -1.519   1.720   0.842  0.00  0.00    +0.119 HD
ENDBRANCH  50  51
BRANCH  48  54
ATOM     54  O   UNL     1      -5.971   3.587  -1.190  0.00  0.00    -0.387 OA
ATOM     55  H   UNL     1      -6.156   3.694  -2.159  0.00  0.00    +0.210 HD
ENDBRANCH  48  54
BRANCH  49  56
ATOM     56  O   UNL     1      -3.729   2.325  -2.885  0.00  0.00    -0.387 OA
ATOM     57  H   UNL     1      -2.891   2.748  -3.212  0.00  0.00    +0.210 HD
ENDBRANCH  49  56
BRANCH  47  58
ATOM     58  C   UNL     1      -6.767   1.657   0.900  0.00  0.00    +0.112 C 
BRANCH  58  59
ATOM     59  N   UNL     1      -7.510   2.909   1.016  0.00  0.00    -0.328 NA
ATOM     60  H   UNL     1      -7.111   3.456   1.814  0.00  0.00    +0.118 HD
ATOM     61  H   UNL     1      -8.495   2.673   1.279  0.00  0.00    +0.118 HD
ENDBRANCH  58  59
ENDBRANCH  47  58
ENDBRANCH  44  45
ENDBRANCH   6  44
TORSDOF 22
