REMARK  Name = 
REMARK  8 active torsions:
REMARK  status: ('A' for Active; 'I' for Inactive)
REMARK    1  A    between atoms: C_1  and  N_2
REMARK    2  A    between atoms: N_2  and  C_3
REMARK    3  A    between atoms: C_4  and  O_6
REMARK    4  A    between atoms: O_6  and  C_7
REMARK    5  A    between atoms: C_9  and  N_13
REMARK    6  A    between atoms: N_13  and  C_14
REMARK    7  A    between atoms: N_13  and  C_15
REMARK    8  A    between atoms: N_13  and  C_16
REMARK                            x       y       z     vdW  Elec       q    Type
REMARK                         _______ _______ _______ _____ _____    ______ ____
ROOT
ATOM      1  C   UNL     1       0.617  -0.484   0.364  0.00  0.00    +0.135 A 
ATOM      2  C   UNL     1      -0.565   0.204   0.066  0.00  0.00    +0.068 A 
ATOM      3  C   UNL     1      -1.841  -0.401   0.207  0.00  0.00    +0.019 A 
ATOM      4  C   UNL     1      -1.870  -1.740   0.680  0.00  0.00    +0.022 A 
ATOM      5  C   UNL     1      -0.692  -2.419   0.998  0.00  0.00    +0.005 A 
ATOM      6  C   UNL     1       0.544  -1.798   0.848  0.00  0.00    +0.046 A 
ENDROOT
BRANCH   3   7
ATOM      7  N   UNL     1      -3.062   0.359  -0.131  0.00  0.00    -0.390 NA
ATOM      8  C   UNL     1      -4.313  -0.419   0.070  0.00  0.00    +0.109 C 
ATOM      9  C   UNL     1      -3.146   1.568   0.724  0.00  0.00    +0.109 C 
ATOM     10  C   UNL     1      -3.014   0.765  -1.558  0.00  0.00    +0.109 C 
ENDBRANCH   3   7
BRANCH   1  11
ATOM     11  O   UNL     1       1.838   0.189   0.207  0.00  0.00    -0.411 OA
BRANCH  11  15
ATOM     12  C   UNL     1       5.571  -0.290  -0.255  0.00  0.00    +0.135 C 
ATOM     13  N   UNL     1       4.285   0.329   0.077  0.00  0.00    -0.273 N 
ATOM     14  C   UNL     1       4.222   1.701   0.587  0.00  0.00    +0.135 C 
ATOM     15  C   UNL     1       3.067  -0.416  -0.091  0.00  0.00    +0.408 C 
ATOM     16  O   UNL     1       3.106  -1.591  -0.551  0.00  0.00    -0.226 OA
ENDBRANCH  11  15
ENDBRANCH   1  11
TORSDOF 3
