REMARK  Name = 
REMARK  5 active torsions:
REMARK  status: ('A' for Active; 'I' for Inactive)
REMARK    1  A    between atoms: C_2  and  C_4
REMARK    2  A    between atoms: C_4  and  C_5
REMARK    3  A    between atoms: C_9  and  C_10
REMARK    4  A    between atoms: C_10  and  C_12
REMARK    5  A    between atoms: C_18  and  N_19
REMARK                            x       y       z     vdW  Elec       q    Type
REMARK                         _______ _______ _______ _____ _____    ______ ____
ROOT
ATOM      1  C   UNL     1      -2.175  -0.750   0.288  0.00  0.00    -0.017 A 
ATOM      2  C   UNL     1      -1.884  -1.979   0.904  0.00  0.00    +0.006 A 
ATOM      3  C   UNL     1      -0.588  -2.282   1.310  0.00  0.00    +0.001 A 
ATOM      4  C   UNL     1       0.437  -1.359   1.125  0.00  0.00    +0.013 A 
ATOM      5  C   UNL     1       0.179  -0.116   0.528  0.00  0.00    +0.043 A 
ATOM      6  C   UNL     1      -1.137   0.202   0.103  0.00  0.00    +0.039 A 
ENDROOT
BRANCH   6   7
ATOM      7  N   UNL     1      -1.402   1.461  -0.540  0.00  0.00    -0.357 N 
ATOM      8  H   UNL     1      -0.632   2.056  -0.915  0.00  0.00    +0.142 HD
ATOM      9  H   UNL     1      -2.370   1.821  -0.678  0.00  0.00    +0.142 HD
ENDBRANCH   6   7
BRANCH   5  10
ATOM     10  C   UNL     1       1.290   0.858   0.422  0.00  0.00    +0.195 C 
ATOM     11  O   UNL     1       1.135   2.008   0.917  0.00  0.00    -0.287 OA
BRANCH  10  12
ATOM     12  C   UNL     1       2.583   0.506  -0.220  0.00  0.00    +0.022 A 
ATOM     13  C   UNL     1       2.678  -0.575  -1.118  0.00  0.00    +0.012 A 
ATOM     14  C   UNL     1       3.900  -0.889  -1.721  0.00  0.00    +0.001 A 
ATOM     15  C   UNL     1       5.037  -0.128  -1.441  0.00  0.00    +0.000 A 
ATOM     16  C   UNL     1       4.953   0.952  -0.560  0.00  0.00    +0.001 A 
ATOM     17  C   UNL     1       3.734   1.272   0.045  0.00  0.00    +0.012 A 
ENDBRANCH  10  12
ENDBRANCH   5  10
BRANCH   1  18
ATOM     18  C   UNL     1      -3.601  -0.483  -0.141  0.00  0.00    +0.132 C 
BRANCH  18  20
ATOM     19  N   UNL     1      -4.953   1.585   0.467  0.00  0.00    -0.329 N 
ATOM     20  C   UNL     1      -4.312   0.374   0.866  0.00  0.00    +0.215 C 
ATOM     21  O   UNL     1      -4.371   0.007   2.071  0.00  0.00    -0.276 OA
ATOM     22  H   UNL     1      -4.944   1.894  -0.530  0.00  0.00    +0.145 HD
ATOM     23  H   UNL     1      -5.449   2.175   1.172  0.00  0.00    +0.145 HD
ENDBRANCH  18  20
ENDBRANCH   1  18
TORSDOF 5
