REMARK  Name = 
REMARK  17 active torsions:
REMARK  status: ('A' for Active; 'I' for Inactive)
REMARK    1  A    between atoms: C_1  and  C_2
REMARK    2  A    between atoms: C_2  and  N_3
REMARK    3  A    between atoms: N_3  and  C_4
REMARK    4  A    between atoms: C_6  and  N_7
REMARK    5  A    between atoms: C_8  and  O_9
REMARK    6  A    between atoms: O_9  and  C_10
REMARK    7  A    between atoms: C_12  and  C_13
REMARK    8  A    between atoms: C_13  and  N_14
REMARK    9  A    between atoms: C_17  and  N_18
REMARK   10  A    between atoms: C_19  and  O_20
REMARK   11  A    between atoms: C_21  and  O_22
REMARK   12  A    between atoms: O_22  and  C_23
REMARK   13  A    between atoms: C_26  and  O_27
REMARK   14  A    between atoms: C_28  and  N_29
REMARK   15  A    between atoms: N_29  and  C_30
REMARK   16  A    between atoms: C_31  and  C_32
REMARK   17  A    between atoms: C_31  and  O_33
REMARK                            x       y       z     vdW  Elec       q    Type
REMARK                         _______ _______ _______ _____ _____    ______ ____
ROOT
ATOM      1  C   UNL     1       0.812  -1.504   1.980  0.00  0.00    +0.087 C 
ATOM      2  C   UNL     1      -0.488  -1.573   2.842  0.00  0.00    +0.042 C 
ATOM      3  C   UNL     1      -1.800  -0.974   2.244  0.00  0.00    +0.084 C 
ATOM      4  C   UNL     1      -1.611  -0.084   0.990  0.00  0.00    +0.170 C 
ATOM      5  C   UNL     1      -0.257   0.638   1.058  0.00  0.00    +0.175 C 
ATOM      6  C   UNL     1       0.875  -0.383   0.894  0.00  0.00    +0.169 C 
ENDROOT
BRANCH   3   7
ATOM      7  N   UNL     1      -2.795  -2.018   1.982  0.00  0.00    -0.325 NA
ATOM      8  H   UNL     1      -2.428  -2.684   1.269  0.00  0.00    +0.119 HD
ATOM      9  H   UNL     1      -2.977  -2.551   2.862  0.00  0.00    +0.119 HD
ENDBRANCH   3   7
BRANCH   1  10
ATOM     10  N   UNL     1       1.222  -2.826   1.455  0.00  0.00    -0.311 NA
ATOM     11  H   UNL     1       2.114  -2.706   0.920  0.00  0.00    +0.122 HD
BRANCH  10  13
ATOM     12  C   UNL     1       0.852  -4.573  -0.251  0.00  0.00    +0.020 C 
ATOM     13  C   UNL     1       0.212  -3.492   0.616  0.00  0.00    +0.078 C 
ENDBRANCH  10  13
ENDBRANCH   1  10
BRANCH   5  14
ATOM     14  O   UNL     1      -0.167   1.583   0.020  0.00  0.00    -0.387 OA
ATOM     15  H   UNL     1      -0.466   2.453   0.392  0.00  0.00    +0.210 HD
ENDBRANCH   5  14
BRANCH   4  16
ATOM     16  O   UNL     1      -2.643   0.894   0.936  0.00  0.00    -0.333 OA
BRANCH  16  17
ATOM     17  C   UNL     1      -3.746   0.471   0.149  0.00  0.00    +0.324 C 
ATOM     18  O   UNL     1      -4.945   1.002   0.713  0.00  0.00    -0.465 OA
ATOM     19  C   UNL     1      -6.135   1.122  -0.022  0.00  0.00    +0.111 C 
ATOM     20  C   UNL     1      -6.131   0.952  -1.354  0.00  0.00    +0.017 C 
ATOM     21  C   UNL     1      -4.875   0.568  -2.092  0.00  0.00    +0.055 C 
ATOM     22  C   UNL     1      -3.603   0.951  -1.314  0.00  0.00    +0.124 C 
BRANCH  22  23
ATOM     23  N   UNL     1      -3.379   2.398  -1.405  0.00  0.00    -0.322 NA
ATOM     24  H   UNL     1      -2.434   2.619  -1.021  0.00  0.00    +0.119 HD
ATOM     25  H   UNL     1      -4.077   2.908  -0.815  0.00  0.00    +0.119 HD
ENDBRANCH  22  23
BRANCH  19  26
ATOM     26  C   UNL     1      -7.391   1.515   0.694  0.00  0.00    +0.152 C 
BRANCH  26  27
ATOM     27  N   UNL     1      -7.607   2.951   0.569  0.00  0.00    -0.324 NA
ATOM     28  H   UNL     1      -6.872   3.445   1.127  0.00  0.00    +0.119 HD
ATOM     29  H   UNL     1      -8.523   3.176   1.020  0.00  0.00    +0.119 HD
ENDBRANCH  26  27
ENDBRANCH  19  26
ENDBRANCH  16  17
ENDBRANCH   4  16
BRANCH   6  30
ATOM     30  O   UNL     1       2.116   0.303   1.010  0.00  0.00    -0.341 OA
BRANCH  30  31
ATOM     31  C   UNL     1       2.936   0.121  -0.133  0.00  0.00    +0.284 C 
ATOM     32  O   UNL     1       2.434   0.908  -1.195  0.00  0.00    -0.346 OA
ATOM     33  C   UNL     1       2.979   0.473  -2.429  0.00  0.00    +0.196 C 
ATOM     34  C   UNL     1       4.517   0.257  -2.385  0.00  0.00    +0.160 C 
ATOM     35  C   UNL     1       5.151   0.946  -1.144  0.00  0.00    +0.121 C 
ATOM     36  C   UNL     1       4.397   0.562   0.184  0.00  0.00    +0.131 C 
ATOM     37  C   UNL     1       5.139  -0.596   0.895  0.00  0.00    +0.048 C 
BRANCH  35  38
ATOM     38  N   UNL     1       5.178   2.420  -1.306  0.00  0.00    -0.311 NA
ATOM     39  C   UNL     1       6.335   2.884  -2.077  0.00  0.00    +0.101 C 
ATOM     40  H   UNL     1       4.306   2.759  -1.773  0.00  0.00    +0.122 HD
ENDBRANCH  35  38
BRANCH  34  41
ATOM     41  O   UNL     1       4.806  -1.118  -2.346  0.00  0.00    -0.388 OA
ATOM     42  H   UNL     1       4.636  -1.476  -3.257  0.00  0.00    +0.210 HD
ENDBRANCH  34  41
BRANCH  36  43
ATOM     43  O   UNL     1       4.379   1.692   1.034  0.00  0.00    -0.382 OA
ATOM     44  H   UNL     1       4.116   1.408   1.948  0.00  0.00    +0.210 HD
ENDBRANCH  36  43
ENDBRANCH  30  31
ENDBRANCH   6  30
TORSDOF 14
