REMARK  Name = 
REMARK  2 active torsions:
REMARK  status: ('A' for Active; 'I' for Inactive)
REMARK    1  A    between atoms: C_1  and  C_2
REMARK    2  A    between atoms: N_13  and  C_14
REMARK                            x       y       z     vdW  Elec       q    Type
REMARK                         _______ _______ _______ _____ _____    ______ ____
ROOT
ATOM      1  C   UNL     1       4.029  -0.219  -0.076  0.00  0.00    +0.046 C 
ATOM      2  C   UNL     1       2.806   0.369   0.574  0.00  0.00    -0.024 A 
ATOM      3  C   UNL     1       1.517   0.175   0.024  0.00  0.00    +0.077 A 
ATOM      4  N   UNL     1       1.360  -0.492  -1.239  0.00  0.00    -0.278 N 
ATOM      5  C   UNL     1       0.358  -1.476  -1.541  0.00  0.00    +0.252 C 
ATOM      6  O   UNL     1       0.490  -2.152  -2.598  0.00  0.00    -0.270 OA
ATOM      7  C   UNL     1      -0.809  -1.750  -0.667  0.00  0.00    +0.077 A 
ATOM      8  C   UNL     1      -1.439  -0.743   0.094  0.00  0.00    +0.139 A 
ATOM      9  N   UNL     1      -2.578  -1.033   0.786  0.00  0.00    -0.239 NA
ATOM     10  C   UNL     1      -3.133  -2.271   0.785  0.00  0.00    +0.113 A 
ATOM     11  C   UNL     1      -2.541  -3.298   0.055  0.00  0.00    +0.021 A 
ATOM     12  C   UNL     1      -1.384  -3.034  -0.677  0.00  0.00    +0.018 A 
ATOM     13  N   UNL     1      -0.910   0.587   0.152  0.00  0.00    -0.265 N 
ATOM     14  C   UNL     1       0.413   0.759   0.669  0.00  0.00    +0.148 A 
ATOM     15  N   UNL     1       0.599   1.512   1.788  0.00  0.00    -0.238 NA
ATOM     16  C   UNL     1       1.828   1.716   2.325  0.00  0.00    +0.113 A 
ATOM     17  C   UNL     1       2.951   1.149   1.730  0.00  0.00    +0.025 A 
ATOM     18  H   UNL     1       2.116  -0.369  -1.950  0.00  0.00    +0.155 HD
ENDROOT
BRANCH  13  19
ATOM     19  C   UNL     1      -1.840   1.717   0.204  0.00  0.00    +0.082 C 
ATOM     20  C   UNL     1      -1.467   2.856  -0.731  0.00  0.00    +0.025 C 
ATOM     21  C   UNL     1      -2.616   1.927  -1.087  0.00  0.00    +0.025 C 
ENDBRANCH  13  19
TORSDOF 1
