REMARK  Name = 
REMARK  2 active torsions:
REMARK  status: ('A' for Active; 'I' for Inactive)
REMARK    1  A    between atoms: O_1  and  C_2
REMARK    2  A    between atoms: C_2  and  C_4
REMARK                            x       y       z     vdW  Elec       q    Type
REMARK                         _______ _______ _______ _____ _____    ______ ____
ROOT
ATOM      1  C   UNL     1      -0.492  -0.053  -0.151  0.00  0.00    +0.077 A 
ATOM      2  C   UNL     1      -0.022  -0.984  -1.095  0.00  0.00    +0.125 A 
ATOM      3  N   UNL     1       1.304  -1.275  -1.170  0.00  0.00    -0.262 NA
ATOM      4  C   UNL     1       2.214  -0.687  -0.349  0.00  0.00    +0.111 A 
ATOM      5  C   UNL     1       1.796   0.242   0.604  0.00  0.00    +0.020 A 
ATOM      6  C   UNL     1       0.440   0.559   0.703  0.00  0.00    +0.018 A 
ENDROOT
BRANCH   1   7
ATOM      7  C   UNL     1      -1.931   0.274  -0.056  0.00  0.00    +0.338 C 
ATOM      8  O   UNL     1      -2.764  -0.278  -0.824  0.00  0.00    -0.245 OA
BRANCH   7   9
ATOM      9  O   UNL     1      -2.379   1.198   0.885  0.00  0.00    -0.477 OA
ATOM     10  H   UNL     1      -3.362   1.430   0.959  0.00  0.00    +0.295 HD
ENDBRANCH   7   9
ENDBRANCH   1   7
TORSDOF 2
