REMARK  Name = 
REMARK  15 active torsions:
REMARK  status: ('A' for Active; 'I' for Inactive)
REMARK    1  A    between atoms: C_1  and  O_2
REMARK    2  A    between atoms: O_2  and  C_3
REMARK    3  A    between atoms: C_3  and  C_5
REMARK    4  A    between atoms: C_6  and  C_7
REMARK    5  A    between atoms: C_9  and  C_10
REMARK    6  A    between atoms: C_11  and  C_22
REMARK    7  A    between atoms: C_12  and  C_13
REMARK    8  A    between atoms: C_15  and  N_19
REMARK    9  A    between atoms: C_22  and  O_24
REMARK   10  A    between atoms: O_24  and  C_25
REMARK   11  A    between atoms: C_25  and  C_26
REMARK   12  A    between atoms: C_26  and  N_27
REMARK   13  A    between atoms: N_27  and  C_28
REMARK   14  A    between atoms: N_27  and  C_29
REMARK   15  A    between atoms: C_29  and  C_30
REMARK                            x       y       z     vdW  Elec       q    Type
REMARK                         _______ _______ _______ _____ _____    ______ ____
ROOT
ATOM      1  C   UNL     1      -3.607  -1.299  -0.361  0.00  0.00    +0.065 C 
ATOM      2  C   UNL     1      -4.034  -2.034   0.693  0.00  0.00    +0.016 C 
ATOM      3  C   UNL     1      -5.228  -2.951   0.617  0.00  0.00    +0.061 C 
ATOM      4  N   UNL     1      -3.324  -1.963   1.938  0.00  0.00    -0.321 N 
ATOM      5  C   UNL     1      -2.022  -1.370   2.043  0.00  0.00    +0.016 C 
ATOM      6  C   UNL     1      -1.263  -1.560   3.331  0.00  0.00    +0.061 C 
ATOM      7  C   UNL     1      -1.516  -0.688   0.989  0.00  0.00    +0.065 C 
ATOM      8  C   UNL     1      -2.408  -0.375  -0.204  0.00  0.00    +0.096 C 
ATOM      9  H   UNL     1      -3.726  -2.446   2.773  0.00  0.00    +0.152 HD
ENDROOT
BRANCH   8  10
ATOM     10  C   UNL     1      -2.884   1.065  -0.142  0.00  0.00    -0.033 A 
ATOM     11  C   UNL     1      -3.662   1.521   0.939  0.00  0.00    +0.037 A 
ATOM     12  C   UNL     1      -4.113   2.853   0.991  0.00  0.00    +0.126 A 
ATOM     13  C   UNL     1      -3.778   3.727  -0.058  0.00  0.00    +0.033 A 
ATOM     14  C   UNL     1      -3.012   3.279  -1.135  0.00  0.00    +0.003 A 
ATOM     15  C   UNL     1      -2.568   1.956  -1.180  0.00  0.00    +0.005 A 
BRANCH  12  16
ATOM     16  N   UNL     1      -4.908   3.317   2.099  0.00  0.00    +0.056 N 
ATOM     17  O   UNL     1      -5.349   4.620   2.146  0.00  0.00    -0.126 OA
ATOM     18  O   UNL     1      -5.208   2.546   3.034  0.00  0.00    -0.126 OA
ENDBRANCH  12  16
ENDBRANCH   8  10
BRANCH   1  19
ATOM     19  C   UNL     1      -4.314  -1.278  -1.671  0.00  0.00    +0.337 C 
ATOM     20  O   UNL     1      -3.670  -0.999  -2.720  0.00  0.00    -0.245 OA
BRANCH  19  22
ATOM     21  C   UNL     1      -6.412  -1.473  -2.973  0.00  0.00    +0.280 C 
ATOM     22  O   UNL     1      -5.692  -1.507  -1.747  0.00  0.00    -0.465 OA
ENDBRANCH  19  22
ENDBRANCH   1  19
BRANCH   7  23
ATOM     23  C   UNL     1      -0.124  -0.157   0.965  0.00  0.00    +0.338 C 
ATOM     24  O   UNL     1       0.148   0.837   0.236  0.00  0.00    -0.245 OA
BRANCH  23  25
ATOM     25  O   UNL     1       0.891  -0.777   1.703  0.00  0.00    -0.460 OA
BRANCH  25  26
ATOM     26  C   UNL     1       2.260  -0.379   1.654  0.00  0.00    +0.248 C 
BRANCH  26  27
ATOM     27  C   UNL     1       2.928  -0.913   0.382  0.00  0.00    +0.125 C 
BRANCH  27  28
ATOM     28  N   UNL     1       4.314  -0.404   0.267  0.00  0.00    -0.298 NA
ATOM     29  C   UNL     1       5.240  -1.247   1.051  0.00  0.00    +0.105 C 
BRANCH  28  30
ATOM     30  C   UNL     1       4.737  -0.360  -1.150  0.00  0.00    +0.119 C 
BRANCH  30  31
ATOM     31  C   UNL     1       5.992   0.461  -1.312  0.00  0.00    -0.033 A 
ATOM     32  C   UNL     1       7.199  -0.146  -1.696  0.00  0.00    +0.005 A 
ATOM     33  C   UNL     1       8.360   0.622  -1.831  0.00  0.00    +0.000 A 
ATOM     34  C   UNL     1       8.325   1.997  -1.582  0.00  0.00    +0.000 A 
ATOM     35  C   UNL     1       7.128   2.606  -1.196  0.00  0.00    +0.000 A 
ATOM     36  C   UNL     1       5.964   1.842  -1.061  0.00  0.00    +0.005 A 
ENDBRANCH  30  31
ENDBRANCH  28  30
ENDBRANCH  27  28
ENDBRANCH  26  27
ENDBRANCH  25  26
ENDBRANCH  23  25
ENDBRANCH   7  23
TORSDOF 11
