REMARK  Name = 
REMARK  8 active torsions:
REMARK  status: ('A' for Active; 'I' for Inactive)
REMARK    1  A    between atoms: N_6  and  C_7
REMARK    2  A    between atoms: C_14  and  O_31
REMARK    3  A    between atoms: C_16  and  C_17
REMARK    4  A    between atoms: C_17  and  O_18
REMARK    5  A    between atoms: O_18  and  C_19
REMARK    6  A    between atoms: C_19  and  C_21
REMARK    7  A    between atoms: N_29  and  C_30
REMARK    8  A    between atoms: O_31  and  C_32
REMARK                            x       y       z     vdW  Elec       q    Type
REMARK                         _______ _______ _______ _____ _____    ______ ____
ROOT
ATOM      1  C   UNL     1       1.915  -0.109   0.042  0.00  0.00    +0.097 C 
ATOM      2  C   UNL     1       2.333  -1.361  -1.350  0.00  0.00    +0.059 C 
ATOM      3  C   UNL     1       4.081  -1.237  -1.892  0.00  0.00    -0.020 A 
ATOM      4  C   UNL     1       5.155  -2.116  -1.726  0.00  0.00    +0.090 A 
ATOM      5  N   UNL     1       6.349  -1.382  -1.585  0.00  0.00    -0.349 N 
ATOM      6  C   UNL     1       7.632  -2.013  -1.454  0.00  0.00    +0.149 C 
ATOM      7  C   UNL     1       6.145  -0.026  -1.574  0.00  0.00    +0.049 A 
ATOM      8  C   UNL     1       6.869   1.186  -1.396  0.00  0.00    +0.026 A 
ATOM      9  C   UNL     1       6.129   2.391  -1.216  0.00  0.00    +0.002 A 
ATOM     10  C   UNL     1       4.793   2.326  -0.893  0.00  0.00    +0.007 A 
ATOM     11  C   UNL     1       4.249   1.045  -0.929  0.00  0.00    -0.005 A 
ATOM     12  C   UNL     1       4.789   0.034  -1.679  0.00  0.00    +0.009 A 
ATOM     13  C   UNL     1       3.169   0.348  -0.396  0.00  0.00    +0.111 C 
ATOM     14  C   UNL     1       3.612  -1.440   0.499  0.00  0.00    +0.049 C 
ATOM     15  C   UNL     1       2.414  -2.062   1.437  0.00  0.00    +0.044 C 
ATOM     16  C   UNL     1       2.050  -0.872   2.265  0.00  0.00    +0.091 C 
ATOM     17  N   UNL     1       2.438   0.306   1.537  0.00  0.00    -0.299 NA
ATOM     18  C   UNL     1       3.944   0.651   1.859  0.00  0.00    +0.105 C 
ENDROOT
BRANCH  13  19
ATOM     19  O   UNL     1       2.227   0.848  -1.711  0.00  0.00    -0.370 OA
ATOM     20  C   UNL     1       2.359   2.118  -2.423  0.00  0.00    +0.195 C 
ENDBRANCH  13  19
BRANCH  15  21
ATOM     21  C   UNL     1       2.169  -3.393   2.205  0.00  0.00    +0.237 C 
BRANCH  21  22
ATOM     22  O   UNL     1       0.665  -3.542   2.295  0.00  0.00    -0.461 OA
BRANCH  22  23
ATOM     23  C   UNL     1      -0.036  -2.679   3.087  0.00  0.00    +0.341 C 
ATOM     24  O   UNL     1       0.426  -1.963   3.962  0.00  0.00    -0.245 OA
BRANCH  23  25
ATOM     25  C   UNL     1      -1.471  -2.581   2.792  0.00  0.00    +0.078 A 
ATOM     26  C   UNL     1      -2.113  -1.364   2.496  0.00  0.00    +0.033 A 
ATOM     27  C   UNL     1      -3.506  -1.312   2.540  0.00  0.00    +0.037 A 
ATOM     28 BR   UNL     1      -4.444   0.284   2.167  0.00  0.00    -0.049 Br
ATOM     29  C   UNL     1      -4.198  -2.462   2.895  0.00  0.00    +0.126 A 
ATOM     30  N   UNL     1      -3.598  -3.644   3.186  0.00  0.00    -0.261 NA
ATOM     31  C   UNL     1      -2.245  -3.672   3.133  0.00  0.00    +0.125 A 
ENDBRANCH  23  25
ENDBRANCH  22  23
ENDBRANCH  21  22
ENDBRANCH  15  21
TORSDOF 5
