REMARK  Name = 
REMARK  4 active torsions:
REMARK  status: ('A' for Active; 'I' for Inactive)
REMARK    1  A    between atoms: O_1  and  C_2
REMARK    2  A    between atoms: C_3  and  C_9
REMARK    3  A    between atoms: N_11  and  C_12
REMARK    4  A    between atoms: C_16  and  N_19
REMARK                            x       y       z     vdW  Elec       q    Type
REMARK                         _______ _______ _______ _____ _____    ______ ____
ROOT
ATOM      1  C   UNL     1      -0.820   0.491   0.286  0.00  0.00    +0.252 C 
ATOM      2  O   UNL     1      -0.367   1.477   0.930  0.00  0.00    -0.270 OA
ATOM      3  N   UNL     1       0.029  -0.638   0.023  0.00  0.00    -0.280 N 
ATOM      4  H   UNL     1      -0.424  -1.560  -0.168  0.00  0.00    +0.155 HD
ENDROOT
BRANCH   1   6
ATOM      5  C   UNL     1      -3.223   1.236   0.519  0.00  0.00    +0.129 A 
ATOM      6  C   UNL     1      -2.234   0.493  -0.167  0.00  0.00    +0.080 A 
ATOM      7  C   UNL     1      -2.603  -0.241  -1.310  0.00  0.00    +0.036 A 
ATOM      8  C   UNL     1      -3.928  -0.242  -1.759  0.00  0.00    +0.042 A 
ATOM      9 CL   UNL     1      -4.369  -1.159  -3.188  0.00  0.00    -0.084 Cl
ATOM     10  C   UNL     1      -4.898   0.493  -1.075  0.00  0.00    +0.023 A 
ATOM     11  C   UNL     1      -4.547   1.230   0.057  0.00  0.00    +0.047 A 
BRANCH   5  12
ATOM     12  O   UNL     1      -2.896   1.966   1.662  0.00  0.00    -0.506 OA
ATOM     13  H   UNL     1      -3.592   2.500   2.169  0.00  0.00    +0.292 HD
ENDBRANCH   5  12
ENDBRANCH   1   6
BRANCH   3  14
ATOM     14  C   UNL     1       1.465  -0.587   0.119  0.00  0.00    +0.052 A 
ATOM     15  C   UNL     1       2.188  -1.696   0.599  0.00  0.00    +0.064 A 
ATOM     16 CL   UNL     1       1.371  -3.148   1.165  0.00  0.00    -0.082 Cl
ATOM     17  C   UNL     1       3.586  -1.649   0.664  0.00  0.00    +0.054 A 
ATOM     18  C   UNL     1       4.287  -0.506   0.242  0.00  0.00    +0.128 A 
ATOM     19  C   UNL     1       3.562   0.591  -0.251  0.00  0.00    +0.034 A 
ATOM     20  C   UNL     1       2.167   0.549  -0.316  0.00  0.00    +0.027 A 
BRANCH  18  21
ATOM     21  N   UNL     1       5.724  -0.466   0.312  0.00  0.00    +0.056 N 
ATOM     22  O   UNL     1       6.432  -1.544   0.792  0.00  0.00    -0.126 OA
ATOM     23  O   UNL     1       6.352   0.546  -0.061  0.00  0.00    -0.126 OA
ENDBRANCH  18  21
ENDBRANCH   3  14
TORSDOF 4
