REMARK  Name = 
REMARK  2 active torsions:
REMARK  status: ('A' for Active; 'I' for Inactive)
REMARK    1  A    between atoms: C_1  and  N_2
REMARK    2  A    between atoms: C_6  and  C_7
REMARK                            x       y       z     vdW  Elec       q    Type
REMARK                         _______ _______ _______ _____ _____    ______ ____
ROOT
ATOM      1  C   UNL     1      -1.115  -0.822   1.436  0.00  0.00    +0.105 C 
ATOM      2  N   UNL     1      -1.190  -0.937  -0.037  0.00  0.00    -0.298 NA
ATOM      3  C   UNL     1      -2.538  -0.557  -0.497  0.00  0.00    +0.085 C 
ATOM      4  C   UNL     1      -2.509   0.922  -0.890  0.00  0.00    +0.017 C 
ATOM      5  C   UNL     1      -1.052   1.338  -0.799  0.00  0.00    +0.025 C 
ATOM      6  C   UNL     1      -0.300   0.011  -0.736  0.00  0.00    +0.088 C 
ENDROOT
BRANCH   6   7
ATOM      7  C   UNL     1       1.127   0.047  -0.196  0.00  0.00    -0.012 A 
ATOM      8  C   UNL     1       1.800   1.243   0.124  0.00  0.00    +0.115 A 
ATOM      9  N   UNL     1       3.087   1.211   0.563  0.00  0.00    -0.263 NA
ATOM     10  C   UNL     1       3.772   0.045   0.695  0.00  0.00    +0.111 A 
ATOM     11  C   UNL     1       3.161  -1.163   0.362  0.00  0.00    +0.020 A 
ATOM     12  C   UNL     1       1.843  -1.159  -0.095  0.00  0.00    +0.008 A 
ENDBRANCH   6   7
TORSDOF 1
