REMARK  Name = 
REMARK  10 active torsions:
REMARK  status: ('A' for Active; 'I' for Inactive)
REMARK    1  A    between atoms: C_1  and  O_2
REMARK    2  A    between atoms: O_2  and  C_3
REMARK    3  A    between atoms: C_3  and  C_5
REMARK    4  A    between atoms: C_6  and  C_7
REMARK    5  A    between atoms: C_9  and  C_10
REMARK    6  A    between atoms: C_11  and  C_22
REMARK    7  A    between atoms: C_12  and  C_13
REMARK    8  A    between atoms: C_18  and  N_19
REMARK    9  A    between atoms: C_22  and  O_24
REMARK   10  A    between atoms: O_24  and  C_25
REMARK                            x       y       z     vdW  Elec       q    Type
REMARK                         _______ _______ _______ _____ _____    ______ ____
ROOT
ATOM      1  C   UNL     1       1.154  -1.136  -0.536  0.00  0.00    +0.065 C 
ATOM      2  C   UNL     1       1.250  -1.139  -1.888  0.00  0.00    +0.016 C 
ATOM      3  C   UNL     1       2.537  -1.443  -2.612  0.00  0.00    +0.061 C 
ATOM      4  N   UNL     1       0.090  -0.851  -2.682  0.00  0.00    -0.321 N 
ATOM      5  C   UNL     1      -1.217  -0.691  -2.113  0.00  0.00    +0.016 C 
ATOM      6  C   UNL     1      -2.381  -0.550  -3.061  0.00  0.00    +0.061 C 
ATOM      7  C   UNL     1      -1.365  -0.679  -0.766  0.00  0.00    +0.065 C 
ATOM      8  C   UNL     1      -0.134  -0.670   0.131  0.00  0.00    +0.098 C 
ATOM      9  H   UNL     1       0.190  -0.825  -3.722  0.00  0.00    +0.152 HD
ENDROOT
BRANCH   8  10
ATOM     10  C   UNL     1       0.054   0.695   0.792  0.00  0.00    -0.005 A 
ATOM     11  C   UNL     1      -0.058   0.786   2.194  0.00  0.00    +0.007 A 
ATOM     12  C   UNL     1       0.104   2.007   2.848  0.00  0.00    +0.000 A 
ATOM     13  C   UNL     1       0.380   3.159   2.118  0.00  0.00    +0.002 A 
ATOM     14  C   UNL     1       0.496   3.096   0.729  0.00  0.00    +0.033 A 
ATOM     15  C   UNL     1       0.335   1.871   0.049  0.00  0.00    +0.130 A 
BRANCH  15  16
ATOM     16  N   UNL     1       0.453   1.801  -1.381  0.00  0.00    +0.057 N 
ATOM     17  O   UNL     1       0.725   2.913  -2.143  0.00  0.00    -0.126 OA
ATOM     18  O   UNL     1       0.700   2.810  -2.073  0.00  0.00    -0.126 OA
ENDBRANCH  15  16
ENDBRANCH   8  10
BRANCH   1  19
ATOM     19  C   UNL     1       2.273  -1.551   0.360  0.00  0.00    +0.337 C 
ATOM     20  O   UNL     1       3.186  -2.318  -0.051  0.00  0.00    -0.245 OA
BRANCH  19  22
ATOM     21  C   UNL     1       3.298  -1.487   2.614  0.00  0.00    +0.280 C 
ATOM     22  O   UNL     1       2.278  -1.125   1.692  0.00  0.00    -0.465 OA
ENDBRANCH  19  22
ENDBRANCH   1  19
BRANCH   7  23
ATOM     23  C   UNL     1      -2.696  -0.648  -0.094  0.00  0.00    +0.337 C 
ATOM     24  O   UNL     1      -3.733  -1.062  -0.683  0.00  0.00    -0.245 OA
BRANCH  23  25
ATOM     25  O   UNL     1      -2.786  -0.206   1.230  0.00  0.00    -0.465 OA
ATOM     26  C   UNL     1      -4.013  -0.160   1.946  0.00  0.00    +0.280 C 
ENDBRANCH  23  25
ENDBRANCH   7  23
TORSDOF 6
