REMARK  Name = 
REMARK  5 active torsions:
REMARK  status: ('A' for Active; 'I' for Inactive)
REMARK    1  A    between atoms: O_1  and  C_2
REMARK    2  A    between atoms: C_2  and  C_4
REMARK    3  A    between atoms: C_5  and  N_6
REMARK    4  A    between atoms: N_6  and  C_7
REMARK    5  A    between atoms: C_11  and  C_13
REMARK                            x       y       z     vdW  Elec       q    Type
REMARK                         _______ _______ _______ _____ _____    ______ ____
ROOT
ATOM      1  N   UNL     1      -0.304   0.418   0.513  0.00  0.00    -0.299 N 
ATOM      2  H   UNL     1      -0.317   0.986   1.389  0.00  0.00    +0.154 HD
ENDROOT
BRANCH   1   4
ATOM      3  C   UNL     1      -2.709   0.816   0.004  0.00  0.00    +0.099 A 
ATOM      4  C   UNL     1      -1.563  -0.019  -0.026  0.00  0.00    +0.137 A 
ATOM      5  N   UNL     1      -1.675  -1.294  -0.495  0.00  0.00    -0.239 NA
ATOM      6  C   UNL     1      -2.850  -1.805  -0.942  0.00  0.00    +0.113 A 
ATOM      7  C   UNL     1      -4.003  -1.026  -0.913  0.00  0.00    +0.021 A 
ATOM      8  C   UNL     1      -3.932   0.283  -0.438  0.00  0.00    +0.020 A 
BRANCH   3   9
ATOM      9  C   UNL     1      -2.661   2.232   0.438  0.00  0.00    +0.340 C 
ATOM     10  O   UNL     1      -1.581   2.881   0.410  0.00  0.00    -0.245 OA
BRANCH   9  11
ATOM     11  O   UNL     1      -3.828   2.874   0.846  0.00  0.00    -0.477 OA
ATOM     12  H   UNL     1      -3.814   3.845   1.133  0.00  0.00    +0.295 HD
ENDBRANCH   9  11
ENDBRANCH   3   9
ENDBRANCH   1   4
BRANCH   1  13
ATOM     13  C   UNL     1       0.969  -0.038   0.022  0.00  0.00    +0.033 A 
ATOM     14  C   UNL     1       1.139  -0.423  -1.320  0.00  0.00    +0.023 A 
ATOM     15  C   UNL     1       2.392  -0.829  -1.783  0.00  0.00    +0.002 A 
ATOM     16  C   UNL     1       3.487  -0.855  -0.917  0.00  0.00    +0.012 A 
ATOM     17  C   UNL     1       3.337  -0.482   0.429  0.00  0.00    +0.057 A 
ATOM     18  C   UNL     1       2.078  -0.047   0.882  0.00  0.00    +0.035 A 
BRANCH  17  19
ATOM     19  C   UNL     1       4.532  -0.453   1.349  0.00  0.00    +0.417 C 
ATOM     20  F   UNL     1       5.444  -1.434   0.997  0.00  0.00    -0.166 F 
ATOM     21  F   UNL     1       5.144   0.783   1.261  0.00  0.00    -0.166 F 
ATOM     22  F   UNL     1       4.146  -0.673   2.660  0.00  0.00    -0.166 F 
ENDBRANCH  17  19
ENDBRANCH   1  13
TORSDOF 5
