REMARK  Name = 
REMARK  8 active torsions:
REMARK  status: ('A' for Active; 'I' for Inactive)
REMARK    1  A    between atoms: C_1  and  C_2
REMARK    2  A    between atoms: N_4  and  C_7
REMARK    3  A    between atoms: C_9  and  C_36
REMARK    4  A    between atoms: C_11  and  N_12
REMARK    5  A    between atoms: C_13  and  C_15
REMARK    6  A    between atoms: C_17  and  N_18
REMARK    7  A    between atoms: C_23  and  C_25
REMARK    8  A    between atoms: C_31  and  C_32
REMARK                            x       y       z     vdW  Elec       q    Type
REMARK                         _______ _______ _______ _____ _____    ______ ____
ROOT
ATOM      1  C   UNL     1      -0.064   0.482  -1.374  0.00  0.00    +0.039 A 
ATOM      2  C   UNL     1       1.290   0.189  -1.136  0.00  0.00    +0.036 A 
ATOM      3  C   UNL     1       2.245   0.289  -2.163  0.00  0.00    +0.037 A 
ATOM      4  C   UNL     1       1.833   0.677  -3.457  0.00  0.00    -0.029 A 
ATOM      5  C   UNL     1       2.821   0.777  -4.587  0.00  0.00    +0.045 C 
ATOM      6  C   UNL     1       0.481   0.970  -3.692  0.00  0.00    +0.006 A 
ATOM      7  C   UNL     1      -0.456   0.883  -2.661  0.00  0.00    +0.013 A 
ENDROOT
BRANCH   3   8
ATOM      8  N   UNL     1       3.618  -0.059  -1.907  0.00  0.00    -0.283 N 
ATOM      9  C   UNL     1       4.332   0.343  -0.729  0.00  0.00    +0.220 A 
ATOM     10  N   UNL     1       3.820   1.286   0.107  0.00  0.00    -0.223 NA
ATOM     11  C   UNL     1       4.499   1.682   1.213  0.00  0.00    +0.116 A 
ATOM     12  C   UNL     1       5.744   1.127   1.503  0.00  0.00    +0.048 A 
ATOM     13  C   UNL     1       6.276   0.167   0.627  0.00  0.00    +0.077 A 
ATOM     14  N   UNL     1       5.550  -0.199  -0.466  0.00  0.00    -0.214 NA
ATOM     15  H   UNL     1       4.146  -0.591  -2.635  0.00  0.00    +0.155 HD
BRANCH  13  16
ATOM     16  C   UNL     1       7.593  -0.477   0.874  0.00  0.00    +0.019 A 
ATOM     17  C   UNL     1       7.856  -1.764   0.370  0.00  0.00    +0.120 A 
ATOM     18  N   UNL     1       9.056  -2.361   0.597  0.00  0.00    -0.263 NA
ATOM     19  C   UNL     1      10.041  -1.745   1.302  0.00  0.00    +0.111 A 
ATOM     20  C   UNL     1       9.837  -0.462   1.810  0.00  0.00    +0.020 A 
ATOM     21  C   UNL     1       8.613   0.174   1.594  0.00  0.00    +0.013 A 
ENDBRANCH  13  16
ENDBRANCH   3   8
BRANCH   1  23
ATOM     22  N   UNL     1      -2.455   0.212  -0.558  0.00  0.00    -0.281 N 
ATOM     23  C   UNL     1      -1.055   0.376  -0.275  0.00  0.00    +0.248 C 
ATOM     24  O   UNL     1      -0.655   0.384   0.922  0.00  0.00    -0.270 OA
ATOM     25  H   UNL     1      -2.727  -0.217  -1.472  0.00  0.00    +0.155 HD
BRANCH  22  30
ATOM     26  C   UNL     1      -5.673  -0.194   1.321  0.00  0.00    +0.050 A 
ATOM     27  C   UNL     1      -5.545   0.818   2.289  0.00  0.00    +0.038 A 
ATOM     28  C   UNL     1      -4.420   1.661   2.305  0.00  0.00    +0.059 A 
ATOM     29  C   UNL     1      -3.390   1.448   1.374  0.00  0.00    +0.035 A 
ATOM     30  C   UNL     1      -3.493   0.428   0.414  0.00  0.00    +0.036 A 
ATOM     31  C   UNL     1      -4.646  -0.369   0.379  0.00  0.00    +0.049 A 
BRANCH  26  35
ATOM     32  C   UNL     1      -9.364  -3.219  -0.179  0.00  0.00    +0.067 C 
ATOM     33  C   UNL     1      -8.452  -2.407   0.680  0.00  0.00    +0.056 A 
ATOM     34  C   UNL     1      -7.353  -1.701   0.245  0.00  0.00    +0.115 A 
ATOM     35  N   UNL     1      -6.835  -1.050   1.304  0.00  0.00    -0.306 N 
ATOM     36  C   UNL     1      -7.635  -1.369   2.347  0.00  0.00    +0.204 A 
ATOM     37  N   UNL     1      -8.644  -2.196   1.997  0.00  0.00    -0.241 NA
ENDBRANCH  26  35
BRANCH  28  38
ATOM     38  C   UNL     1      -4.282   2.716   3.375  0.00  0.00    +0.418 C 
ATOM     39  F   UNL     1      -5.519   3.256   3.686  0.00  0.00    -0.166 F 
ATOM     40  F   UNL     1      -3.455   3.745   2.953  0.00  0.00    -0.166 F 
ATOM     41  F   UNL     1      -3.741   2.142   4.511  0.00  0.00    -0.166 F 
ENDBRANCH  28  38
ENDBRANCH  22  30
ENDBRANCH   1  23
TORSDOF 6
