REMARK  Name = 
REMARK  5 active torsions:
REMARK  status: ('A' for Active; 'I' for Inactive)
REMARK    1  A    between atoms: C_1  and  C_2
REMARK    2  A    between atoms: C_2  and  C_3
REMARK    3  A    between atoms: N_7  and  C_10
REMARK    4  A    between atoms: C_12  and  C_19
REMARK    5  A    between atoms: C_13  and  N_16
REMARK                            x       y       z     vdW  Elec       q    Type
REMARK                         _______ _______ _______ _____ _____    ______ ____
ROOT
ATOM      1  C   UNL     1       0.638   0.191  -0.327  0.00  0.00    +0.046 A 
ATOM      2  C   UNL     1       1.578   0.067   0.706  0.00  0.00    +0.038 A 
ATOM      3  C   UNL     1       2.962   0.113   0.443  0.00  0.00    +0.087 A 
ATOM      4  C   UNL     1       3.401   0.227  -0.903  0.00  0.00    +0.138 A 
ATOM      5  C   UNL     1       2.450   0.369  -1.927  0.00  0.00    +0.035 A 
ATOM      6  C   UNL     1       1.085   0.353  -1.643  0.00  0.00    +0.026 A 
ENDROOT
BRANCH   1  13
ATOM      7  C   UNL     1      -3.809  -1.584   0.189  0.00  0.00    +0.041 C 
ATOM      8  C   UNL     1      -3.169  -0.241  -0.183  0.00  0.00    +0.107 C 
ATOM      9  C   UNL     1      -4.079   0.583  -1.101  0.00  0.00    +0.041 C 
ATOM     10  N   UNL     1      -2.854   0.518   1.028  0.00  0.00    -0.285 N 
ATOM     11  C   UNL     1      -1.450   0.732   1.069  0.00  0.00    +0.314 C 
ATOM     12  O   UNL     1      -0.882   1.404   1.970  0.00  0.00    -0.252 OA
ATOM     13  N   UNL     1      -0.771   0.157  -0.037  0.00  0.00    -0.192 N 
ATOM     14  C   UNL     1      -1.811  -0.441  -0.808  0.00  0.00    +0.250 C 
ATOM     15  O   UNL     1      -1.605  -1.096  -1.865  0.00  0.00    -0.272 OA
ATOM     16  H   UNL     1      -3.542   0.867   1.732  0.00  0.00    +0.151 HD
ENDBRANCH   1  13
BRANCH   3  17
ATOM     17  C   UNL     1       3.937   0.017   1.601  0.00  0.00    +0.420 C 
ATOM     18  F   UNL     1       4.997   0.887   1.416  0.00  0.00    -0.166 F 
ATOM     19  F   UNL     1       4.414  -1.277   1.697  0.00  0.00    -0.166 F 
ATOM     20  F   UNL     1       3.329   0.351   2.799  0.00  0.00    -0.166 F 
ENDBRANCH   3  17
BRANCH   4  21
ATOM     21  N   UNL     1       4.796   0.193  -1.253  0.00  0.00    +0.057 N 
ATOM     22  O   UNL     1       5.628  -0.754  -0.703  0.00  0.00    -0.126 OA
ATOM     23  O   UNL     1       5.220   0.887  -2.200  0.00  0.00    -0.126 OA
ENDBRANCH   4  21
TORSDOF 3
