REMARK  Name = 
REMARK  12 active torsions:
REMARK  status: ('A' for Active; 'I' for Inactive)
REMARK    1  A    between atoms: C_1  and  O_2
REMARK    2  A    between atoms: O_2  and  C_3
REMARK    3  A    between atoms: C_3  and  C_5
REMARK    4  A    between atoms: C_6  and  C_27
REMARK    5  A    between atoms: C_8  and  C_9
REMARK    6  A    between atoms: C_10  and  C_21
REMARK    7  A    between atoms: C_11  and  C_12
REMARK    8  A    between atoms: C_14  and  N_18
REMARK    9  A    between atoms: C_21  and  O_23
REMARK   10  A    between atoms: O_23  and  C_24
REMARK   11  A    between atoms: C_24  and  C_25
REMARK   12  A    between atoms: C_24  and  C_26
REMARK                            x       y       z     vdW  Elec       q    Type
REMARK                         _______ _______ _______ _____ _____    ______ ____
ROOT
ATOM      1  C   UNL     1      -1.343   1.382  -1.422  0.00  0.00    +0.080 C 
ATOM      2  C   UNL     1      -0.774   2.602  -1.305  0.00  0.00    +0.120 C 
ATOM      3  N   UNL     1       0.525   2.730  -0.716  0.00  0.00    -0.309 N 
ATOM      4  C   UNL     1       1.359   1.591  -0.458  0.00  0.00    +0.016 C 
ATOM      5  C   UNL     1       2.816   1.840  -0.166  0.00  0.00    +0.061 C 
ATOM      6  C   UNL     1       0.822   0.348  -0.507  0.00  0.00    +0.065 C 
ATOM      7  C   UNL     1      -0.666   0.176  -0.780  0.00  0.00    +0.097 C 
ATOM      8  H   UNL     1       0.915   3.689  -0.570  0.00  0.00    +0.153 HD
ENDROOT
BRANCH   7   9
ATOM      9  C   UNL     1      -1.376  -0.203   0.506  0.00  0.00    -0.033 A 
ATOM     10  C   UNL     1      -1.942  -1.483   0.650  0.00  0.00    +0.037 A 
ATOM     11  C   UNL     1      -2.591  -1.855   1.842  0.00  0.00    +0.126 A 
ATOM     12  C   UNL     1      -2.663  -0.929   2.896  0.00  0.00    +0.033 A 
ATOM     13  C   UNL     1      -2.097   0.341   2.763  0.00  0.00    +0.003 A 
ATOM     14  C   UNL     1      -1.456   0.704   1.578  0.00  0.00    +0.005 A 
BRANCH  11  15
ATOM     15  N   UNL     1      -3.172  -3.164   1.983  0.00  0.00    +0.056 N 
ATOM     16  O   UNL     1      -3.804  -3.528   3.151  0.00  0.00    -0.126 OA
ATOM     17  O   UNL     1      -3.117  -3.990   1.047  0.00  0.00    -0.126 OA
ENDBRANCH  11  15
ENDBRANCH   7   9
BRANCH   1  18
ATOM     18  C   UNL     1      -2.649   1.162  -2.106  0.00  0.00    +0.338 C 
ATOM     19  O   UNL     1      -3.298   0.102  -1.881  0.00  0.00    -0.245 OA
BRANCH  18  21
ATOM     20  C   UNL     1      -4.370   1.907  -3.724  0.00  0.00    +0.280 C 
ATOM     21  O   UNL     1      -3.143   2.092  -3.028  0.00  0.00    -0.465 OA
ENDBRANCH  18  21
ENDBRANCH   1  18
BRANCH   6  22
ATOM     22  C   UNL     1       1.609  -0.884  -0.221  0.00  0.00    +0.338 C 
ATOM     23  O   UNL     1       1.232  -1.986  -0.707  0.00  0.00    -0.245 OA
BRANCH  22  24
ATOM     24  O   UNL     1       2.722  -0.844   0.628  0.00  0.00    -0.459 OA
BRANCH  24  25
ATOM     25  C   UNL     1       3.569  -1.966   0.878  0.00  0.00    +0.171 C 
ATOM     26  C   UNL     1       4.402  -1.685   2.126  0.00  0.00    +0.052 C 
ATOM     27  C   UNL     1       4.478  -2.218  -0.328  0.00  0.00    +0.052 C 
ENDBRANCH  24  25
ENDBRANCH  22  24
ENDBRANCH   6  22
BRANCH   2  28
ATOM     28  C   UNL     1      -1.433   3.812  -1.741  0.00  0.00    +0.115 C 
ATOM     29  N   UNL     1      -1.959   4.783  -2.088  0.00  0.00    -0.190 NA
ENDBRANCH   2  28
TORSDOF 8
