REMARK  Name = 
REMARK  15 active torsions:
REMARK  status: ('A' for Active; 'I' for Inactive)
REMARK    1  A    between atoms: C_1  and  O_2
REMARK    2  A    between atoms: O_2  and  C_3
REMARK    3  A    between atoms: C_3  and  C_4
REMARK    4  A    between atoms: C_4  and  O_5
REMARK    5  A    between atoms: O_5  and  C_6
REMARK    6  A    between atoms: C_6  and  C_8
REMARK    7  A    between atoms: C_9  and  C_10
REMARK    8  A    between atoms: C_12  and  C_13
REMARK    9  A    between atoms: C_14  and  C_25
REMARK   10  A    between atoms: C_15  and  C_16
REMARK   11  A    between atoms: C_18  and  N_22
REMARK   12  A    between atoms: C_25  and  O_27
REMARK   13  A    between atoms: O_27  and  C_28
REMARK   14  A    between atoms: C_28  and  C_29
REMARK   15  A    between atoms: C_28  and  C_30
REMARK                            x       y       z     vdW  Elec       q    Type
REMARK                         _______ _______ _______ _____ _____    ______ ____
ROOT
ATOM      1  C   UNL     1       1.158  -0.349  -0.543  0.00  0.00    +0.065 C 
ATOM      2  C   UNL     1       1.476  -1.414   0.230  0.00  0.00    +0.016 C 
ATOM      3  C   UNL     1       2.900  -1.814   0.519  0.00  0.00    +0.061 C 
ATOM      4  N   UNL     1       0.430  -2.218   0.791  0.00  0.00    -0.321 N 
ATOM      5  C   UNL     1      -0.936  -2.102   0.373  0.00  0.00    +0.016 C 
ATOM      6  C   UNL     1      -1.897  -3.183   0.800  0.00  0.00    +0.061 C 
ATOM      7  C   UNL     1      -1.313  -1.054  -0.395  0.00  0.00    +0.065 C 
ATOM      8  C   UNL     1      -0.301   0.014  -0.784  0.00  0.00    +0.096 C 
ATOM      9  H   UNL     1       0.685  -2.973   1.468  0.00  0.00    +0.152 HD
ENDROOT
BRANCH   8  10
ATOM     10  C   UNL     1      -0.627   1.307  -0.062  0.00  0.00    -0.033 A 
ATOM     11  C   UNL     1      -0.561   1.380   1.342  0.00  0.00    +0.037 A 
ATOM     12  C   UNL     1      -0.865   2.577   2.017  0.00  0.00    +0.126 A 
ATOM     13  C   UNL     1      -1.237   3.706   1.267  0.00  0.00    +0.033 A 
ATOM     14  C   UNL     1      -1.305   3.639  -0.126  0.00  0.00    +0.003 A 
ATOM     15  C   UNL     1      -1.003   2.448  -0.789  0.00  0.00    +0.005 A 
BRANCH  12  16
ATOM     16  N   UNL     1      -0.796   2.649   3.453  0.00  0.00    +0.056 N 
ATOM     17  O   UNL     1      -1.093   3.821   4.110  0.00  0.00    -0.126 OA
ATOM     18  O   UNL     1      -0.465   1.650   4.126  0.00  0.00    -0.126 OA
ENDBRANCH  12  16
ENDBRANCH   8  10
BRANCH   1  19
ATOM     19  C   UNL     1       2.186   0.552  -1.133  0.00  0.00    +0.338 C 
ATOM     20  O   UNL     1       1.922   1.186  -2.192  0.00  0.00    -0.245 OA
BRANCH  19  21
ATOM     21  O   UNL     1       3.416   0.746  -0.498  0.00  0.00    -0.459 OA
BRANCH  21  22
ATOM     22  C   UNL     1       4.430   1.599  -1.018  0.00  0.00    +0.260 C 
BRANCH  22  23
ATOM     23  C   UNL     1       5.646   1.561  -0.103  0.00  0.00    +0.200 C 
BRANCH  23  25
ATOM     24  C   UNL     1       7.248   0.196   0.831  0.00  0.00    +0.194 C 
ATOM     25  O   UNL     1       6.146   0.241  -0.048  0.00  0.00    -0.380 OA
ENDBRANCH  23  25
ENDBRANCH  22  23
ENDBRANCH  21  22
ENDBRANCH  19  21
ENDBRANCH   1  19
BRANCH   7  26
ATOM     26  C   UNL     1      -2.719  -0.848  -0.836  0.00  0.00    +0.338 C 
ATOM     27  O   UNL     1      -2.947  -0.234  -1.914  0.00  0.00    -0.245 OA
BRANCH  26  28
ATOM     28  O   UNL     1      -3.786  -1.272  -0.035  0.00  0.00    -0.459 OA
BRANCH  28  29
ATOM     29  C   UNL     1      -5.157  -1.158  -0.415  0.00  0.00    +0.171 C 
ATOM     30  C   UNL     1      -5.501  -2.217  -1.466  0.00  0.00    +0.052 C 
ATOM     31  C   UNL     1      -6.029  -1.334   0.826  0.00  0.00    +0.052 C 
ENDBRANCH  28  29
ENDBRANCH  26  28
ENDBRANCH   7  26
TORSDOF 10
