REMARK  Name = 
REMARK  13 active torsions:
REMARK  status: ('A' for Active; 'I' for Inactive)
REMARK    1  A    between atoms: C_1  and  O_2
REMARK    2  A    between atoms: O_2  and  C_3
REMARK    3  A    between atoms: C_3  and  C_5
REMARK    4  A    between atoms: C_6  and  C_7
REMARK    5  A    between atoms: C_9  and  C_10
REMARK    6  A    between atoms: C_11  and  C_22
REMARK    7  A    between atoms: C_12  and  C_13
REMARK    8  A    between atoms: C_18  and  N_19
REMARK    9  A    between atoms: C_22  and  O_24
REMARK   10  A    between atoms: O_24  and  C_25
REMARK   11  A    between atoms: C_25  and  C_26
REMARK   12  A    between atoms: C_26  and  C_27
REMARK   13  A    between atoms: C_26  and  C_28
REMARK                            x       y       z     vdW  Elec       q    Type
REMARK                         _______ _______ _______ _____ _____    ______ ____
ROOT
ATOM      1  C   UNL     1      -1.531  -1.103   1.084  0.00  0.00    +0.065 C 
ATOM      2  C   UNL     1      -1.237  -1.005   2.400  0.00  0.00    +0.016 C 
ATOM      3  C   UNL     1      -1.984  -1.776   3.458  0.00  0.00    +0.061 C 
ATOM      4  N   UNL     1      -0.168  -0.149   2.824  0.00  0.00    -0.321 N 
ATOM      5  C   UNL     1       0.781   0.407   1.900  0.00  0.00    +0.016 C 
ATOM      6  C   UNL     1       1.996   1.092   2.470  0.00  0.00    +0.061 C 
ATOM      7  C   UNL     1       0.565   0.283   0.569  0.00  0.00    +0.065 C 
ATOM      8  C   UNL     1      -0.765  -0.269   0.068  0.00  0.00    +0.098 C 
ATOM      9  H   UNL     1      -0.021  -0.001   3.849  0.00  0.00    +0.152 HD
ENDROOT
BRANCH   8  10
ATOM     10  C   UNL     1      -1.660   0.862  -0.425  0.00  0.00    -0.005 A 
ATOM     11  C   UNL     1      -2.032   1.888   0.469  0.00  0.00    +0.007 A 
ATOM     12  C   UNL     1      -2.901   2.902   0.069  0.00  0.00    +0.000 A 
ATOM     13  C   UNL     1      -3.416   2.913  -1.224  0.00  0.00    +0.002 A 
ATOM     14  C   UNL     1      -3.061   1.910  -2.127  0.00  0.00    +0.033 A 
ATOM     15  C   UNL     1      -2.188   0.871  -1.740  0.00  0.00    +0.130 A 
BRANCH  15  16
ATOM     16  N   UNL     1      -1.830  -0.172  -2.663  0.00  0.00    +0.057 N 
ATOM     17  O   UNL     1      -2.493  -0.333  -3.854  0.00  0.00    -0.126 OA
ATOM     18  O   UNL     1      -2.431  -0.323  -3.752  0.00  0.00    -0.126 OA
ENDBRANCH  15  16
ENDBRANCH   8  10
BRANCH   1  19
ATOM     19  C   UNL     1      -2.657  -1.928   0.578  0.00  0.00    +0.337 C 
ATOM     20  O   UNL     1      -2.570  -2.468  -0.559  0.00  0.00    -0.245 OA
BRANCH  19  22
ATOM     21  C   UNL     1      -4.947  -2.817   0.875  0.00  0.00    +0.280 C 
ATOM     22  O   UNL     1      -3.831  -2.062   1.325  0.00  0.00    -0.465 OA
ENDBRANCH  19  22
ENDBRANCH   1  19
BRANCH   7  23
ATOM     23  C   UNL     1       1.552   0.723  -0.459  0.00  0.00    +0.338 C 
ATOM     24  O   UNL     1       1.159   0.969  -1.633  0.00  0.00    -0.245 OA
BRANCH  23  25
ATOM     25  O   UNL     1       2.914   0.820  -0.149  0.00  0.00    -0.461 OA
BRANCH  25  26
ATOM     26  C   UNL     1       3.924   1.138  -1.106  0.00  0.00    +0.235 C 
BRANCH  26  27
ATOM     27  C   UNL     1       4.229  -0.068  -2.014  0.00  0.00    +0.020 C 
ATOM     28  C   UNL     1       4.699  -1.272  -1.189  0.00  0.00    +0.010 C 
ATOM     29  C   UNL     1       5.289   0.307  -3.056  0.00  0.00    +0.010 C 
ENDBRANCH  26  27
ENDBRANCH  25  26
ENDBRANCH  23  25
ENDBRANCH   7  23
TORSDOF 8
