REMARK  Name = 
REMARK  5 active torsions:
REMARK  status: ('A' for Active; 'I' for Inactive)
REMARK    1  A    between atoms: C_1  and  C_2
REMARK    2  A    between atoms: C_2  and  O_4
REMARK    3  A    between atoms: O_4  and  C_5
REMARK    4  A    between atoms: C_10  and  C_11
REMARK    5  A    between atoms: C_17  and  N_19
REMARK                            x       y       z     vdW  Elec       q    Type
REMARK                         _______ _______ _______ _____ _____    ______ ____
ROOT
ATOM      1  C   UNL     1       0.230  -0.363   0.019  0.00  0.00    +0.253 C 
ATOM      2  O   UNL     1       0.400   0.375   1.027  0.00  0.00    -0.270 OA
ATOM      3  N   UNL     1       1.311  -0.578  -0.905  0.00  0.00    -0.261 N 
ATOM      4  C   UNL     1       2.664  -0.174  -0.655  0.00  0.00    +0.167 A 
ATOM      5  N   UNL     1       3.089   0.369   0.509  0.00  0.00    -0.231 NA
ATOM      6  C   UNL     1       4.420   0.643   0.479  0.00  0.00    +0.153 A 
ATOM      7  C   UNL     1       5.048   0.308  -0.716  0.00  0.00    +0.185 A 
ATOM      8  S   UNL     1       3.914  -0.349  -1.771  0.00  0.00    -0.028 S 
ATOM      9  H   UNL     1       1.106  -1.020  -1.829  0.00  0.00    +0.157 HD
ENDROOT
BRANCH   1  15
ATOM     10  C   UNL     1      -2.288  -0.357   0.198  0.00  0.00    +0.144 A 
ATOM     11  C   UNL     1      -3.522  -1.007   0.000  0.00  0.00    +0.047 A 
ATOM     12  C   UNL     1      -3.573  -2.256  -0.622  0.00  0.00    +0.004 A 
ATOM     13  C   UNL     1      -2.398  -2.877  -1.040  0.00  0.00    +0.001 A 
ATOM     14  C   UNL     1      -1.165  -2.257  -0.831  0.00  0.00    +0.017 A 
ATOM     15  C   UNL     1      -1.093  -0.997  -0.208  0.00  0.00    +0.079 A 
BRANCH  10  16
ATOM     16  O   UNL     1      -2.221   0.902   0.817  0.00  0.00    -0.425 OA
BRANCH  16  18
ATOM     17  C   UNL     1      -3.128   3.066   1.665  0.00  0.00    +0.136 C 
ATOM     18  C   UNL     1      -3.207   1.894   0.747  0.00  0.00    +0.309 C 
ATOM     19  O   UNL     1      -4.099   1.863  -0.143  0.00  0.00    -0.251 OA
ENDBRANCH  16  18
ENDBRANCH  10  16
ENDBRANCH   1  15
BRANCH   7  20
ATOM     20  N   UNL     1       6.436   0.488  -1.009  0.00  0.00    +0.065 N 
ATOM     21  O   UNL     1       6.937   0.113  -2.234  0.00  0.00    -0.126 OA
ATOM     22  O   UNL     1       7.204   0.985  -0.160  0.00  0.00    -0.126 OA
ENDBRANCH   7  20
TORSDOF 4
