REMARK  Name = 
REMARK  4 active torsions:
REMARK  status: ('A' for Active; 'I' for Inactive)
REMARK    1  A    between atoms: N_2  and  C_4
REMARK    2  A    between atoms: C_5  and  C_14
REMARK    3  A    between atoms: C_8  and  C_10
REMARK    4  A    between atoms: C_14  and  C_16
REMARK                            x       y       z     vdW  Elec       q    Type
REMARK                         _______ _______ _______ _____ _____    ______ ____
ROOT
ATOM      1  C   UNL     1       1.654   0.354  -0.894  0.00  0.00    +0.137 A 
ATOM      2  C   UNL     1       0.764  -0.672  -0.508  0.00  0.00    +0.049 A 
ATOM      3  C   UNL     1       1.145  -1.577   0.493  0.00  0.00    +0.014 A 
ATOM      4  C   UNL     1       2.383  -1.461   1.125  0.00  0.00    +0.013 A 
ATOM      5  C   UNL     1       3.281  -0.452   0.750  0.00  0.00    +0.057 A 
ATOM      6  C   UNL     1       2.902   0.464  -0.246  0.00  0.00    +0.045 A 
ENDROOT
BRANCH   5   7
ATOM      7  C   UNL     1       4.599  -0.293   1.468  0.00  0.00    +0.417 C 
ATOM      8  F   UNL     1       4.438   0.583   2.525  0.00  0.00    -0.166 F 
ATOM      9  F   UNL     1       5.563   0.207   0.611  0.00  0.00    -0.166 F 
ATOM     10  F   UNL     1       5.044  -1.510   1.955  0.00  0.00    -0.166 F 
ENDBRANCH   5   7
BRANCH   1  12
ATOM     11  O   UNL     1       2.117   2.266  -2.370  0.00  0.00    -0.126 OA
ATOM     12  N   UNL     1       1.290   1.245  -1.963  0.00  0.00    +0.057 N 
ATOM     13  O   UNL     1       2.040   2.171  -2.333  0.00  0.00    -0.126 OA
ENDBRANCH   1  12
BRANCH   2  14
ATOM     14  C   UNL     1      -0.574  -0.830  -1.127  0.00  0.00    +0.183 C 
ATOM     15  O   UNL     1      -0.892  -1.965  -1.578  0.00  0.00    -0.291 OA
BRANCH  14  16
ATOM     16  C   UNL     1      -1.555   0.324  -1.230  0.00  0.00    +0.192 C 
ATOM     17  C   UNL     1      -1.541   1.160   0.031  0.00  0.00    +0.151 C 
ATOM     18  O   UNL     1      -0.868   2.179   0.084  0.00  0.00    -0.296 OA
ATOM     19  C   UNL     1      -2.314   0.706   1.240  0.00  0.00    +0.076 C 
ATOM     20  C   UNL     1      -3.756   0.369   0.845  0.00  0.00    +0.015 C 
ATOM     21  C   UNL     1      -3.800  -0.652  -0.300  0.00  0.00    +0.076 C 
ATOM     22  C   UNL     1      -2.965  -0.177  -1.462  0.00  0.00    +0.151 C 
ATOM     23  O   UNL     1      -3.401  -0.266  -2.600  0.00  0.00    -0.296 OA
ENDBRANCH  14  16
ENDBRANCH   2  14
TORSDOF 4
