REMARK  Name = 
REMARK  3 active torsions:
REMARK  status: ('A' for Active; 'I' for Inactive)
REMARK    1  A    between atoms: N_4  and  N_5
REMARK    2  A    between atoms: C_6  and  C_7
REMARK    3  A    between atoms: C_10  and  N_12
REMARK                            x       y       z     vdW  Elec       q    Type
REMARK                         _______ _______ _______ _____ _____    ______ ____
ROOT
ATOM      1  N   UNL     1       1.329   0.744   0.120  0.00  0.00    -0.183 NA
ATOM      2  C   UNL     1       0.396  -0.156   0.196  0.00  0.00    +0.176 C 
ENDROOT
BRANCH   1   6
ATOM      3  N   UNL     1       4.675  -1.031   0.100  0.00  0.00    -0.312 N 
ATOM      4  C   UNL     1       3.316  -0.746  -0.228  0.00  0.00    +0.317 C 
ATOM      5  O   UNL     1       2.680  -1.538  -0.975  0.00  0.00    -0.251 OA
ATOM      6  N   UNL     1       2.701   0.457   0.258  0.00  0.00    -0.191 N 
ATOM      7  H   UNL     1       5.221  -0.383   0.709  0.00  0.00    +0.147 HD
ATOM      8  H   UNL     1       5.136  -1.895  -0.264  0.00  0.00    +0.147 HD
ATOM      9  H   UNL     1       3.324   1.218   0.607  0.00  0.00    +0.179 HD
ENDBRANCH   1   6
BRANCH   2  10
ATOM     10  C   UNL     1      -1.012   0.217   0.025  0.00  0.00    +0.150 A 
ATOM     11  C   UNL     1      -1.498   1.486  -0.248  0.00  0.00    +0.053 A 
ATOM     12  C   UNL     1      -2.869   1.356  -0.324  0.00  0.00    +0.076 A 
ATOM     13  C   UNL     1      -3.123   0.017  -0.091  0.00  0.00    +0.280 A 
ATOM     14  O   UNL     1      -2.005  -0.638   0.113  0.00  0.00    -0.433 OA
BRANCH  13  15
ATOM     15  N   UNL     1      -4.415  -0.595  -0.070  0.00  0.00    +0.093 N 
ATOM     16  O   UNL     1      -4.530  -1.943   0.174  0.00  0.00    -0.123 OA
ATOM     17  O   UNL     1      -5.443   0.084  -0.272  0.00  0.00    -0.123 OA
ENDBRANCH  13  15
ENDBRANCH   2  10
TORSDOF 3
