REMARK  Name = 
REMARK  2 active torsions:
REMARK  status: ('A' for Active; 'I' for Inactive)
REMARK    1  A    between atoms: O_1  and  C_2
REMARK    2  A    between atoms: C_9  and  N_12
REMARK                            x       y       z     vdW  Elec       q    Type
REMARK                         _______ _______ _______ _____ _____    ______ ____
ROOT
ATOM      1  C   UNL     1       1.829  -0.719  -0.090  0.00  0.00    +0.143 A 
ATOM      2  C   UNL     1       0.437  -0.918  -0.070  0.00  0.00    +0.114 A 
ATOM      3  N   UNL     1      -0.071  -2.180  -0.133  0.00  0.00    -0.251 NA
ATOM      4  C   UNL     1      -1.406  -2.423  -0.088  0.00  0.00    +0.111 A 
ATOM      5  C   UNL     1      -2.304  -1.367   0.042  0.00  0.00    +0.020 A 
ATOM      6  C   UNL     1      -1.823  -0.059   0.110  0.00  0.00    +0.014 A 
ATOM      7  C   UNL     1      -0.440   0.194   0.032  0.00  0.00    +0.034 A 
ATOM      8  C   UNL     1       0.097   1.504   0.090  0.00  0.00    +0.136 A 
ATOM      9  C   UNL     1       1.490   1.674   0.091  0.00  0.00    +0.037 A 
ATOM     10  C   UNL     1       2.345   0.575  -0.001  0.00  0.00    +0.050 A 
ENDROOT
BRANCH   8  11
ATOM     11  N   UNL     1      -0.747   2.667   0.120  0.00  0.00    +0.057 N 
ATOM     12  O   UNL     1      -1.759   2.807  -0.801  0.00  0.00    -0.126 OA
ATOM     13  O   UNL     1      -0.426   3.652   0.816  0.00  0.00    -0.126 OA
ENDBRANCH   8  11
BRANCH   1  14
ATOM     14  O   UNL     1       2.717  -1.791  -0.191  0.00  0.00    -0.505 OA
ATOM     15  H   UNL     1       2.403  -2.751  -0.258  0.00  0.00    +0.292 HD
ENDBRANCH   1  14
TORSDOF 2
