REMARK  Name = 
REMARK  2 active torsions:
REMARK  status: ('A' for Active; 'I' for Inactive)
REMARK    1  A    between atoms: N_2  and  C_4
REMARK    2  A    between atoms: C_13  and  C_14
REMARK                            x       y       z     vdW  Elec       q    Type
REMARK                         _______ _______ _______ _____ _____    ______ ____
ROOT
ATOM      1  C   UNL     1      -1.775  -2.029  -1.135  0.00  0.00    +0.127 A 
ATOM      2  C   UNL     1      -0.692  -1.139  -1.045  0.00  0.00    +0.044 A 
ATOM      3  C   UNL     1      -0.810   0.091  -0.370  0.00  0.00    +0.024 A 
ATOM      4  C   UNL     1      -2.062   0.448   0.195  0.00  0.00    +0.043 A 
ATOM      5  N   UNL     1      -2.275   1.700   0.869  0.00  0.00    -0.283 N 
ATOM      6  C   UNL     1      -1.773   2.948   0.379  0.00  0.00    +0.239 C 
ATOM      7  O   UNL     1      -2.121   4.023   0.939  0.00  0.00    -0.273 OA
ATOM      8  C   UNL     1      -0.836   2.989  -0.782  0.00  0.00    +0.238 C 
ATOM      9  N   UNL     1       0.363   2.234  -0.449  0.00  0.00    -0.273 NA
ATOM     10  C   UNL     1       0.408   0.949  -0.238  0.00  0.00    +0.075 C 
ATOM     11  C   UNL     1      -3.131  -0.455   0.122  0.00  0.00    +0.026 A 
ATOM     12  C   UNL     1      -2.994  -1.677  -0.536  0.00  0.00    +0.034 A 
ATOM     13  H   UNL     1      -2.989   1.736   1.632  0.00  0.00    +0.155 HD
ENDROOT
BRANCH  10  14
ATOM     14  C   UNL     1       1.719   0.341   0.111  0.00  0.00    +0.001 A 
ATOM     15  C   UNL     1       2.917   0.908  -0.365  0.00  0.00    +0.010 A 
ATOM     16  C   UNL     1       4.151   0.342  -0.030  0.00  0.00    +0.001 A 
ATOM     17  C   UNL     1       4.205  -0.788   0.787  0.00  0.00    +0.000 A 
ATOM     18  C   UNL     1       3.025  -1.354   1.276  0.00  0.00    +0.001 A 
ATOM     19  C   UNL     1       1.788  -0.793   0.944  0.00  0.00    +0.010 A 
ENDBRANCH  10  14
BRANCH   1  21
ATOM     20  O   UNL     1      -0.432  -3.634  -2.401  0.00  0.00    -0.126 OA
ATOM     21  N   UNL     1      -1.631  -3.285  -1.823  0.00  0.00    +0.056 N 
ATOM     22  O   UNL     1      -2.591  -4.079  -1.907  0.00  0.00    -0.126 OA
ENDBRANCH   1  21
TORSDOF 2
