REMARK  Name = 
REMARK  6 active torsions:
REMARK  status: ('A' for Active; 'I' for Inactive)
REMARK    1  A    between atoms: N_2  and  FE_3
REMARK    2  A    between atoms: FE_3  and  C_4
REMARK    3  A    between atoms: FE_3  and  C_6
REMARK    4  A    between atoms: FE_3  and  C_8
REMARK    5  A    between atoms: FE_3  and  C_10
REMARK    6  A    between atoms: FE_3  and  C_12
REMARK                            x       y       z     vdW  Elec       q    Type
REMARK                         _______ _______ _______ _____ _____    ______ ____
ROOT
ATOM      1 FE   UNL     1       3.322  -0.822  -1.489  0.00  0.00    +0.000 Fe
ENDROOT
BRANCH   1   3
ATOM      2  O   UNL     1       1.081   0.016   0.057  0.00  0.00    +0.000 OA
ATOM      3  N   UNL     1       2.307   0.016   0.057  0.00  0.00    +0.000 NA
ENDBRANCH   1   3
BRANCH   1   4
ATOM      4  C   UNL     1       3.322  -2.650  -0.497  0.00  0.00    +0.000 C 
ATOM      5  N   UNL     1       3.322  -3.759   0.104  0.00  0.00    +0.000 NA
ENDBRANCH   1   4
BRANCH   1   6
ATOM      6  C   UNL     1       1.521  -1.318  -2.403  0.00  0.00    +0.000 C 
ATOM      7  N   UNL     1       0.429  -1.618  -2.957  0.00  0.00    +0.000 NA
ENDBRANCH   1   6
BRANCH   1   8
ATOM      8  C   UNL     1       4.362  -1.681  -3.072  0.00  0.00    +0.000 C 
ATOM      9  N   UNL     1       4.992  -2.201  -4.032  0.00  0.00    +0.000 NA
ENDBRANCH   1   8
BRANCH   1  10
ATOM     10  C   UNL     1       3.322   1.007  -2.480  0.00  0.00    +0.000 C 
ATOM     11  N   UNL     1       3.322   2.115  -3.081  0.00  0.00    +0.000 NA
ENDBRANCH   1  10
BRANCH   1  12
ATOM     12  C   UNL     1       5.123  -0.326  -0.575  0.00  0.00    +0.000 C 
ATOM     13  N   UNL     1       6.215  -0.026  -0.020  0.00  0.00    +0.000 NA
ENDBRANCH   1  12
TORSDOF 6
