REMARK  Name = 
REMARK  11 active torsions:
REMARK  status: ('A' for Active; 'I' for Inactive)
REMARK    1  A    between atoms: C_1  and  C_2
REMARK    2  A    between atoms: C_2  and  O_3
REMARK    3  A    between atoms: O_3  and  C_4
REMARK    4  A    between atoms: C_4  and  C_6
REMARK    5  A    between atoms: C_7  and  C_8
REMARK    6  A    between atoms: C_10  and  C_11
REMARK    7  A    between atoms: C_12  and  C_23
REMARK    8  A    between atoms: C_13  and  C_14
REMARK    9  A    between atoms: C_16  and  N_20
REMARK   10  A    between atoms: C_23  and  O_25
REMARK   11  A    between atoms: O_25  and  C_26
REMARK                            x       y       z     vdW  Elec       q    Type
REMARK                         _______ _______ _______ _____ _____    ______ ____
ROOT
ATOM      1  C   UNL     1       1.107  -0.610   0.121  0.00  0.00    +0.065 C 
ATOM      2  C   UNL     1       1.207  -1.520   1.119  0.00  0.00    +0.016 C 
ATOM      3  C   UNL     1       2.502  -1.805   1.835  0.00  0.00    +0.061 C 
ATOM      4  N   UNL     1       0.046  -2.265   1.514  0.00  0.00    -0.321 N 
ATOM      5  C   UNL     1      -1.149  -2.297   0.721  0.00  0.00    +0.016 C 
ATOM      6  C   UNL     1      -2.217  -3.293   1.095  0.00  0.00    +0.061 C 
ATOM      7  C   UNL     1      -1.268  -1.460  -0.336  0.00  0.00    +0.065 C 
ATOM      8  C   UNL     1      -0.241  -0.355  -0.539  0.00  0.00    +0.096 C 
ATOM      9  H   UNL     1       0.107  -2.881   2.356  0.00  0.00    +0.152 HD
ENDROOT
BRANCH   8  10
ATOM     10  C   UNL     1      -0.795   0.975  -0.061  0.00  0.00    -0.033 A 
ATOM     11  C   UNL     1      -0.914   2.054  -0.956  0.00  0.00    +0.037 A 
ATOM     12  C   UNL     1      -1.412   3.296  -0.525  0.00  0.00    +0.126 A 
ATOM     13  C   UNL     1      -1.789   3.450   0.821  0.00  0.00    +0.033 A 
ATOM     14  C   UNL     1      -1.667   2.386   1.716  0.00  0.00    +0.003 A 
ATOM     15  C   UNL     1      -1.172   1.156   1.282  0.00  0.00    +0.005 A 
BRANCH  12  16
ATOM     16  N   UNL     1      -1.532   4.393  -1.450  0.00  0.00    +0.056 N 
ATOM     17  O   UNL     1      -1.163   4.241  -2.767  0.00  0.00    -0.126 OA
ATOM     18  O   UNL     1      -1.974   5.499  -1.074  0.00  0.00    -0.126 OA
ENDBRANCH  12  16
ENDBRANCH   8  10
BRANCH   1  19
ATOM     19  C   UNL     1       2.249   0.240  -0.316  0.00  0.00    +0.338 C 
ATOM     20  O   UNL     1       2.265   0.701  -1.490  0.00  0.00    -0.245 OA
BRANCH  19  21
ATOM     21  O   UNL     1       3.274   0.576   0.574  0.00  0.00    -0.462 OA
BRANCH  21  23
ATOM     22  C   UNL     1       5.309   1.556   1.397  0.00  0.00    +0.048 C 
ATOM     23  C   UNL     1       4.375   1.399   0.208  0.00  0.00    +0.229 C 
ENDBRANCH  21  23
ENDBRANCH  19  21
ENDBRANCH   1  19
BRANCH   7  24
ATOM     24  C   UNL     1      -2.413  -1.518  -1.287  0.00  0.00    +0.337 C 
ATOM     25  O   UNL     1      -2.741  -0.482  -1.929  0.00  0.00    -0.245 OA
BRANCH  24  26
ATOM     26  O   UNL     1      -3.093  -2.719  -1.516  0.00  0.00    -0.465 OA
ATOM     27  C   UNL     1      -4.186  -2.823  -2.421  0.00  0.00    +0.280 C 
ENDBRANCH  24  26
ENDBRANCH   7  24
TORSDOF 7
