REMARK  Name = 
REMARK  3 active torsions:
REMARK  status: ('A' for Active; 'I' for Inactive)
REMARK    1  A    between atoms: N_2  and  C_4
REMARK    2  A    between atoms: C_7  and  C_9
REMARK    3  A    between atoms: N_10  and  N_11
REMARK                            x       y       z     vdW  Elec       q    Type
REMARK                         _______ _______ _______ _____ _____    ______ ____
ROOT
ATOM      1  C   UNL     1       0.569   0.557  -1.937  0.00  0.00    +0.177 C 
ATOM      2  N   UNL     1      -0.723   0.721  -1.936  0.00  0.00    -0.180 NA
ENDROOT
BRANCH   2   3
ATOM      3  N   UNL     1      -1.555   0.461  -0.835  0.00  0.00    -0.168 N 
ATOM      4  C   UNL     1      -2.766   1.233  -0.572  0.00  0.00    +0.232 C 
ATOM      5  C   UNL     1      -3.581   0.300   0.268  0.00  0.00    +0.240 C 
ATOM      6  O   UNL     1      -4.708   0.581   0.754  0.00  0.00    -0.274 OA
ATOM      7  N   UNL     1      -2.954  -0.960   0.446  0.00  0.00    -0.237 N 
ATOM      8  C   UNL     1      -1.744  -0.839  -0.275  0.00  0.00    +0.328 C 
ATOM      9  O   UNL     1      -0.950  -1.800  -0.451  0.00  0.00    -0.250 OA
ATOM     10  H   UNL     1      -3.335  -1.806   0.926  0.00  0.00    +0.159 HD
ENDBRANCH   2   3
BRANCH   1  14
ATOM     11  C   UNL     1       3.001  -0.497   0.411  0.00  0.00    +0.280 A 
ATOM     12  C   UNL     1       2.130   0.057   1.327  0.00  0.00    +0.076 A 
ATOM     13  C   UNL     1       1.073   0.535   0.581  0.00  0.00    +0.053 A 
ATOM     14  C   UNL     1       1.368   0.229  -0.740  0.00  0.00    +0.150 A 
ATOM     15  O   UNL     1       2.530  -0.378  -0.808  0.00  0.00    -0.433 OA
BRANCH  11  17
ATOM     16  O   UNL     1       4.679  -1.200   2.029  0.00  0.00    -0.123 OA
ATOM     17  N   UNL     1       4.251  -1.115   0.724  0.00  0.00    +0.093 N 
ATOM     18  O   UNL     1       4.963  -1.582  -0.188  0.00  0.00    -0.123 OA
ENDBRANCH  11  17
ENDBRANCH   1  14
TORSDOF 3
