REMARK  Name = 
REMARK  8 active torsions:
REMARK  status: ('A' for Active; 'I' for Inactive)
REMARK    1  A    between atoms: N_2  and  O_4
REMARK    2  A    between atoms: O_4  and  C_5
REMARK    3  A    between atoms: C_5  and  C_6
REMARK    4  A    between atoms: C_6  and  C_7
REMARK    5  A    between atoms: C_6  and  O_12
REMARK    6  A    between atoms: C_7  and  O_8
REMARK    7  A    between atoms: O_8  and  N_9
REMARK    8  A    between atoms: O_12  and  N_13
REMARK                            x       y       z     vdW  Elec       q    Type
REMARK                         _______ _______ _______ _____ _____    ______ ____
ROOT
ATOM      1  C   UNL     1      -0.070   0.143   0.279  0.00  0.00    +0.289 C 
ENDROOT
BRANCH   1   2
ATOM      2  C   UNL     1      -1.214  -0.841   0.026  0.00  0.00    +0.318 C 
BRANCH   2   3
ATOM      3  O   UNL     1      -2.413  -0.344   0.614  0.00  0.00    -0.348 OA
BRANCH   3   5
ATOM      4  O   UNL     1      -4.731  -0.506   1.123  0.00  0.00    -0.090 OA
ATOM      5  N   UNL     1      -3.607  -1.034   0.536  0.00  0.00    +0.217 N 
ATOM      6  O   UNL     1      -3.679  -2.130  -0.059  0.00  0.00    -0.090 OA
ENDBRANCH   3   5
ENDBRANCH   2   3
ENDBRANCH   1   2
BRANCH   1   7
ATOM      7  C   UNL     1       1.235  -0.393  -0.321  0.00  0.00    +0.318 C 
BRANCH   7   8
ATOM      8  O   UNL     1       2.319   0.475   0.004  0.00  0.00    -0.348 OA
BRANCH   8   9
ATOM      9  N   UNL     1       3.619   0.242  -0.410  0.00  0.00    +0.217 N 
ATOM     10  O   UNL     1       3.938  -0.859  -1.172  0.00  0.00    -0.090 OA
ATOM     11  O   UNL     1       3.909  -0.757  -1.101  0.00  0.00    -0.090 OA
ENDBRANCH   8   9
ENDBRANCH   7   8
ENDBRANCH   1   7
BRANCH   1  12
ATOM     12  O   UNL     1      -0.403   1.400  -0.314  0.00  0.00    -0.341 OA
BRANCH  12  13
ATOM     13  N   UNL     1       0.135   2.599   0.114  0.00  0.00    +0.218 N 
ATOM     14  O   UNL     1      -0.190   3.757  -0.551  0.00  0.00    -0.090 OA
ATOM     15  O   UNL     1       0.858   2.659   1.130  0.00  0.00    -0.090 OA
ENDBRANCH  12  13
ENDBRANCH   1  12
TORSDOF 8
