REMARK  Name = 
REMARK  13 active torsions:
REMARK  status: ('A' for Active; 'I' for Inactive)
REMARK    1  A    between atoms: C_1  and  N_2
REMARK    2  A    between atoms: N_2  and  C_3
REMARK    3  A    between atoms: C_3  and  N_4
REMARK    4  A    between atoms: N_4  and  C_5
REMARK    5  A    between atoms: C_5  and  C_6
REMARK    6  A    between atoms: C_6  and  S_7
REMARK    7  A    between atoms: S_7  and  C_8
REMARK    8  A    between atoms: C_8  and  C_9
REMARK    9  A    between atoms: C_12  and  C_13
REMARK   10  A    between atoms: C_13  and  N_14
REMARK   11  A    between atoms: N_14  and  C_15
REMARK   12  A    between atoms: N_14  and  C_16
REMARK   13  A    between atoms: C_18  and  N_19
REMARK                            x       y       z     vdW  Elec       q    Type
REMARK                         _______ _______ _______ _____ _____    ______ ____
ROOT
ATOM      1  C   UNL     1      -1.824   1.772  -0.643  0.00  0.00    +0.088 C 
ENDROOT
BRANCH   1   2
ATOM      2  C   UNL     1      -1.527   0.277  -0.504  0.00  0.00    +0.113 C 
BRANCH   2   3
ATOM      3  N   UNL     1      -2.564  -0.380   0.293  0.00  0.00    -0.330 N 
ATOM      4  H   UNL     1      -2.317  -0.563   1.290  0.00  0.00    +0.147 HD
BRANCH   3   5
ATOM      5  C   UNL     1      -3.857  -0.808  -0.198  0.00  0.00    +0.107 C 
ATOM      6  C   UNL     1      -4.213  -0.597  -1.484  0.00  0.00    +0.216 C 
BRANCH   5   8
ATOM      7  C   UNL     1      -4.372  -2.044   1.970  0.00  0.00    +0.126 C 
ATOM      8  N   UNL     1      -4.787  -1.421   0.718  0.00  0.00    -0.334 N 
ATOM      9  H   UNL     1      -5.811  -1.407   0.515  0.00  0.00    +0.147 HD
ENDBRANCH   5   8
BRANCH   6  10
ATOM     10  N   UNL     1      -5.428  -1.098  -2.060  0.00  0.00    +0.052 N 
ATOM     11  O   UNL     1      -5.931  -0.476  -3.178  0.00  0.00    -0.127 OA
ATOM     12  O   UNL     1      -5.851  -2.234  -1.763  0.00  0.00    -0.127 OA
ENDBRANCH   6  10
ENDBRANCH   3   5
ENDBRANCH   2   3
ENDBRANCH   1   2
BRANCH   1  13
ATOM     13  S   UNL     1      -0.756   2.548  -1.911  0.00  0.00    -0.153 S 
BRANCH  13  14
ATOM     14  C   UNL     1       0.743   2.761  -0.881  0.00  0.00    +0.125 C 
BRANCH  14  15
ATOM     15  C   UNL     1       1.641   1.568  -0.988  0.00  0.00    +0.059 A 
ATOM     16  C   UNL     1       2.167   1.115  -2.196  0.00  0.00    +0.071 A 
ATOM     17  S   UNL     1       3.122  -0.230  -1.869  0.00  0.00    -0.079 S 
ATOM     18  C   UNL     1       2.833  -0.172  -0.213  0.00  0.00    +0.093 A 
ATOM     19  N   UNL     1       2.019   0.857   0.109  0.00  0.00    -0.247 NA
BRANCH  18  20
ATOM     20  C   UNL     1       3.413  -1.122   0.799  0.00  0.00    +0.146 C 
BRANCH  20  21
ATOM     21  N   UNL     1       4.660  -0.632   1.426  0.00  0.00    -0.302 NA
ATOM     22  C   UNL     1       5.751  -0.471   0.452  0.00  0.00    +0.105 C 
ATOM     23  C   UNL     1       4.455   0.606   2.194  0.00  0.00    +0.105 C 
ENDBRANCH  20  21
ENDBRANCH  18  20
ENDBRANCH  14  15
ENDBRANCH  13  14
ENDBRANCH   1  13
TORSDOF 10
