REMARK  Name = 
REMARK  5 active torsions:
REMARK  status: ('A' for Active; 'I' for Inactive)
REMARK    1  A    between atoms: C_1  and  C_2
REMARK    2  A    between atoms: C_2  and  C_3
REMARK    3  A    between atoms: N_16  and  O_17
REMARK    4  A    between atoms: C_21  and  O_22
REMARK    5  A    between atoms: C_21  and  C_23
REMARK                            x       y       z     vdW  Elec       q    Type
REMARK                         _______ _______ _______ _____ _____    ______ ____
ROOT
ATOM      1  C   UNL     1      -2.172  -0.525   0.585  0.00  0.00    +0.014 C 
ATOM      2  C   UNL     1      -1.330  -1.822   0.723  0.00  0.00    +0.011 C 
ATOM      3  C   UNL     1      -0.043  -1.782  -0.123  0.00  0.00    +0.005 C 
ATOM      4  C   UNL     1       0.902  -0.588   0.219  0.00  0.00    -0.000 C 
ATOM      5  C   UNL     1       0.159   0.794   0.290  0.00  0.00    -0.003 C 
ATOM      6  C   UNL     1       0.332   1.632  -0.999  0.00  0.00    +0.008 C 
ATOM      7  C   UNL     1       1.811   2.022  -1.169  0.00  0.00    +0.031 C 
ATOM      8  C   UNL     1       2.723   0.867  -0.812  0.00  0.00    -0.064 C 
ATOM      9  C   UNL     1       3.984   1.125  -0.423  0.00  0.00    +0.026 C 
ATOM     10  C   UNL     1       4.844   0.065   0.149  0.00  0.00    +0.080 C 
ATOM     11  C   UNL     1       4.198  -1.224   0.556  0.00  0.00    +0.059 C 
ATOM     12  C   UNL     1       3.178  -1.640  -0.501  0.00  0.00    +0.014 C 
ATOM     13  C   UNL     1       2.120  -0.537  -0.766  0.00  0.00    +0.019 C 
ATOM     14  N   UNL     1       6.111   0.236   0.399  0.00  0.00    -0.092 NA
ATOM     15  C   UNL     1      -1.250   0.663   0.934  0.00  0.00    +0.002 C 
ATOM     16  C   UNL     1      -2.174   1.852   1.117  0.00  0.00    +0.008 C 
ATOM     17  C   UNL     1      -3.441   1.226   1.747  0.00  0.00    +0.049 C 
ATOM     18  C   UNL     1      -3.252  -0.322   1.724  0.00  0.00    +0.132 C 
ENDROOT
BRANCH   1  20
ATOM     19  C   UNL     1      -2.313   0.096  -2.058  0.00  0.00    +0.004 C 
ATOM     20  C   UNL     1      -2.950  -0.486  -0.807  0.00  0.00    +0.007 C 
ENDBRANCH   1  20
BRANCH  14  21
ATOM     21  O   UNL     1       6.846   1.358   0.070  0.00  0.00    -0.409 OA
ATOM     22  H   UNL     1       6.484   2.109  -0.501  0.00  0.00    +0.328 HD
ENDBRANCH  14  21
BRANCH  18  23
ATOM     23  O   UNL     1      -2.761  -0.715   2.991  0.00  0.00    -0.376 OA
ATOM     24  H   UNL     1      -2.831  -1.703   3.069  0.00  0.00    +0.211 HD
ENDBRANCH  18  23
BRANCH  18  25
ATOM     25  C   UNL     1      -4.551  -1.006   1.486  0.00  0.00    -0.070 C 
ATOM     26  C   UNL     1      -5.604  -1.562   1.295  0.00  0.00    +0.007 C 
ENDBRANCH  18  25
TORSDOF 4
