REMARK  Name = 
REMARK  3 active torsions:
REMARK  status: ('A' for Active; 'I' for Inactive)
REMARK    1  A    between atoms: C_4  and  O_5
REMARK    2  A    between atoms: C_4  and  C_6
REMARK    3  A    between atoms: C_8  and  C_9
REMARK                            x       y       z     vdW  Elec       q    Type
REMARK                         _______ _______ _______ _____ _____    ______ ____
ROOT
ATOM      1  C   UNL     1       1.429   0.660   0.268  0.00  0.00    +0.002 C 
ATOM      2  C   UNL     1       2.271   1.926   0.384  0.00  0.00    +0.008 C 
ATOM      3  C   UNL     1       3.679   1.501  -0.076  0.00  0.00    +0.049 C 
ATOM      4  C   UNL     1       3.566   0.051  -0.618  0.00  0.00    +0.132 C 
ATOM      5  C   UNL     1       2.039  -0.105  -0.916  0.00  0.00    +0.011 C 
ATOM      6  C   UNL     1       1.724   0.551  -2.303  0.00  0.00    +0.015 C 
ATOM      7  C   UNL     1       1.468  -1.546  -0.892  0.00  0.00    +0.011 C 
ATOM      8  C   UNL     1      -0.078  -1.544  -0.942  0.00  0.00    +0.005 C 
ATOM      9  C   UNL     1      -0.736  -0.632   0.140  0.00  0.00    -0.000 C 
ATOM     10  C   UNL     1      -2.283  -0.540  -0.031  0.00  0.00    +0.019 C 
ATOM     11  C   UNL     1      -2.943  -1.939   0.087  0.00  0.00    +0.016 C 
ATOM     12  C   UNL     1      -4.469  -1.849   0.067  0.00  0.00    +0.079 C 
ATOM     13  C   UNL     1      -4.944  -0.888   1.108  0.00  0.00    +0.156 C 
ATOM     14  O   UNL     1      -6.080  -1.039   1.633  0.00  0.00    -0.293 OA
ATOM     15  C   UNL     1      -4.125   0.277   1.465  0.00  0.00    +0.045 C 
ATOM     16  C   UNL     1      -2.881   0.443   0.980  0.00  0.00    -0.063 C 
ATOM     17  C   UNL     1      -2.182   1.758   1.230  0.00  0.00    +0.031 C 
ATOM     18  C   UNL     1      -0.671   1.578   1.365  0.00  0.00    +0.008 C 
ATOM     19  C   UNL     1      -0.105   0.796   0.167  0.00  0.00    -0.003 C 
ENDROOT
BRANCH   4  20
ATOM     20  O   UNL     1       4.360  -0.092  -1.771  0.00  0.00    -0.376 OA
ATOM     21  H   UNL     1       4.221  -1.014  -2.115  0.00  0.00    +0.211 HD
ENDBRANCH   4  20
BRANCH   4  22
ATOM     22  C   UNL     1       4.053  -0.892   0.421  0.00  0.00    -0.070 C 
ATOM     23  C   UNL     1       4.452  -1.656   1.264  0.00  0.00    +0.007 C 
ENDBRANCH   4  22
TORSDOF 2
