REMARK  Name = 
REMARK  6 active torsions:
REMARK  status: ('A' for Active; 'I' for Inactive)
REMARK    1  A    between atoms: N_1  and  C_2
REMARK    2  A    between atoms: C_2  and  C_3
REMARK    3  A    between atoms: C_3  and  O_4
REMARK    4  A    between atoms: C_3  and  C_5
REMARK    5  A    between atoms: C_7  and  O_8
REMARK    6  A    between atoms: C_9  and  O_10
REMARK                            x       y       z     vdW  Elec       q    Type
REMARK                         _______ _______ _______ _____ _____    ______ ____
ROOT
ATOM      1  C   UNL     1      -0.019   0.160   0.192  0.00  0.00    -0.014 A 
ATOM      2  C   UNL     1       0.904  -0.744   0.748  0.00  0.00    +0.055 A 
ATOM      3  C   UNL     1       2.258  -0.697   0.385  0.00  0.00    +0.159 A 
ATOM      4  C   UNL     1       2.699   0.260  -0.544  0.00  0.00    +0.158 A 
ATOM      5  C   UNL     1       1.785   1.159  -1.100  0.00  0.00    +0.049 A 
ATOM      6  C   UNL     1       0.437   1.112  -0.738  0.00  0.00    +0.010 A 
ENDROOT
BRANCH   3   7
ATOM      7  O   UNL     1       3.164  -1.598   0.942  0.00  0.00    -0.503 OA
ATOM      8  H   UNL     1       2.872  -2.298   1.614  0.00  0.00    +0.292 HD
ENDBRANCH   3   7
BRANCH   4   9
ATOM      9  O   UNL     1       4.039   0.332  -0.925  0.00  0.00    -0.503 OA
ATOM     10  H   UNL     1       4.739  -0.297  -0.550  0.00  0.00    +0.292 HD
ENDBRANCH   4   9
BRANCH   1  11
ATOM     11  C   UNL     1      -1.481   0.096   0.589  0.00  0.00    +0.158 C 
BRANCH  11  12
ATOM     12  O   UNL     1      -1.889   1.310   1.171  0.00  0.00    -0.386 OA
ATOM     13  H   UNL     1      -1.941   1.994   0.454  0.00  0.00    +0.210 HD
ENDBRANCH  11  12
BRANCH  11  14
ATOM     14  C   UNL     1      -2.372  -0.291  -0.613  0.00  0.00    +0.114 C 
BRANCH  14  15
ATOM     15  N   UNL     1      -3.766  -0.483  -0.215  0.00  0.00    -0.327 NA
ATOM     16  H   UNL     1      -4.132   0.410   0.188  0.00  0.00    +0.118 HD
ATOM     17  H   UNL     1      -3.809  -1.213   0.532  0.00  0.00    +0.118 HD
ENDBRANCH  14  15
ENDBRANCH  11  14
ENDBRANCH   1  11
TORSDOF 6
