REMARK  Name = 
REMARK  5 active torsions:
REMARK  status: ('A' for Active; 'I' for Inactive)
REMARK    1  A    between atoms: C_1  and  C_2
REMARK    2  A    between atoms: C_2  and  N_3
REMARK    3  A    between atoms: C_5  and  C_6
REMARK    4  A    between atoms: C_6  and  O_7
REMARK    5  A    between atoms: C_15  and  N_18
REMARK                            x       y       z     vdW  Elec       q    Type
REMARK                         _______ _______ _______ _____ _____    ______ ____
ROOT
ATOM      1  N   UNL     1       2.393   0.009  -0.621  0.00  0.00    -0.346 N 
ATOM      2  C   UNL     1       3.661   0.183  -0.136  0.00  0.00    +0.105 A 
ATOM      3  C   UNL     1       3.900   0.655   1.162  0.00  0.00    +0.122 A 
ATOM      4  C   UNL     1       2.797   0.945   1.984  0.00  0.00    +0.203 A 
ATOM      5  O   UNL     1       2.976   1.381   3.156  0.00  0.00    -0.286 OA
ATOM      6  C   UNL     1       1.491   0.744   1.504  0.00  0.00    +0.049 A 
ATOM      7  C   UNL     1       0.376   1.016   2.321  0.00  0.00    +0.054 A 
ATOM      8  C   UNL     1      -0.919   0.800   1.856  0.00  0.00    +0.145 A 
ATOM      9  F   UNL     1      -1.970   1.104   2.657  0.00  0.00    -0.204 F 
ATOM     10  C   UNL     1      -1.129   0.301   0.567  0.00  0.00    +0.067 A 
ATOM     11  C   UNL     1      -0.029   0.036  -0.261  0.00  0.00    +0.052 A 
ATOM     12  C   UNL     1       1.298   0.258   0.184  0.00  0.00    +0.055 A 
ENDROOT
BRANCH  10  13
ATOM     13  N   UNL     1      -2.464   0.061   0.089  0.00  0.00    -0.325 N 
ATOM     14  C   UNL     1      -3.265  -0.994   0.722  0.00  0.00    +0.120 C 
ATOM     15  C   UNL     1      -4.633  -1.114   0.051  0.00  0.00    +0.100 C 
ATOM     16  N   UNL     1      -5.169   0.229  -0.176  0.00  0.00    -0.313 NA
ATOM     17  C   UNL     1      -4.401   0.959  -1.202  0.00  0.00    +0.100 C 
ATOM     18  C   UNL     1      -2.889   0.635  -1.194  0.00  0.00    +0.120 C 
ATOM     19  H   UNL     1      -6.156   0.135  -0.512  0.00  0.00    +0.122 HD
ENDBRANCH  10  13
BRANCH   1  21
ATOM     20  C   UNL     1       2.097  -1.996  -2.036  0.00  0.00    +0.027 C 
ATOM     21  C   UNL     1       2.270  -0.480  -2.010  0.00  0.00    +0.118 C 
ENDBRANCH   1  21
BRANCH   3  22
ATOM     22  C   UNL     1       5.304   0.834   1.625  0.00  0.00    +0.342 C 
ATOM     23  O   UNL     1       5.555   1.248   2.788  0.00  0.00    -0.245 OA
BRANCH  22  24
ATOM     24  O   UNL     1       6.365   0.543   0.770  0.00  0.00    -0.477 OA
ATOM     25  H   UNL     1       7.324   0.660   1.073  0.00  0.00    +0.295 HD
ENDBRANCH  22  24
ENDBRANCH   3  22
TORSDOF 4
