REMARK  Name = 
REMARK  7 active torsions:
REMARK  status: ('A' for Active; 'I' for Inactive)
REMARK    1  A    between atoms: C_4  and  O_5
REMARK    2  A    between atoms: C_4  and  C_9
REMARK    3  A    between atoms: O_5  and  C_6
REMARK    4  A    between atoms: C_6  and  C_7
REMARK    5  A    between atoms: C_11  and  C_12
REMARK    6  A    between atoms: C_12  and  C_13
REMARK    7  A    between atoms: N_26  and  O_27
REMARK                            x       y       z     vdW  Elec       q    Type
REMARK                         _______ _______ _______ _____ _____    ______ ____
ROOT
ATOM      1  C   UNL     1      -0.849   0.486   0.913  0.00  0.00    +0.004 C 
ATOM      2  C   UNL     1      -1.747   0.292   2.128  0.00  0.00    +0.009 C 
ATOM      3  C   UNL     1      -3.168   0.547   1.608  0.00  0.00    +0.062 C 
ATOM      4  C   UNL     1      -3.093   0.658   0.055  0.00  0.00    +0.179 C 
ATOM      5  C   UNL     1      -1.680   0.075  -0.315  0.00  0.00    +0.025 C 
ATOM      6  C   UNL     1      -0.973   0.731  -1.543  0.00  0.00    +0.012 C 
ATOM      7  C   UNL     1       0.514   0.302  -1.667  0.00  0.00    +0.005 C 
ATOM      8  C   UNL     1       1.331   0.440  -0.342  0.00  0.00    -0.000 C 
ATOM      9  C   UNL     1       2.742  -0.213  -0.451  0.00  0.00    +0.019 C 
ATOM     10  C   UNL     1       3.573   0.443  -1.581  0.00  0.00    +0.014 C 
ATOM     11  C   UNL     1       5.001  -0.099  -1.623  0.00  0.00    +0.059 C 
ATOM     12  C   UNL     1       5.650   0.022  -0.271  0.00  0.00    +0.080 C 
ATOM     13  C   UNL     1       4.821  -0.065   0.942  0.00  0.00    +0.026 C 
ATOM     14  C   UNL     1       3.479  -0.137   0.887  0.00  0.00    -0.064 C 
ATOM     15  C   UNL     1       2.726  -0.430   2.164  0.00  0.00    +0.031 C 
ATOM     16  C   UNL     1       1.345   0.226   2.175  0.00  0.00    +0.008 C 
ATOM     17  C   UNL     1       0.566  -0.125   0.898  0.00  0.00    -0.003 C 
ATOM     18  N   UNL     1       6.940   0.089  -0.145  0.00  0.00    -0.092 NA
ENDROOT
BRANCH   4  19
ATOM     19  C   UNL     1      -3.235   2.083  -0.336  0.00  0.00    -0.058 C 
ATOM     20  C   UNL     1      -3.357   3.241  -0.649  0.00  0.00    +0.008 C 
ENDBRANCH   4  19
BRANCH   5  21
ATOM     21  C   UNL     1      -1.761  -1.483  -0.612  0.00  0.00    +0.009 C 
ATOM     22  C   UNL     1      -2.320  -2.418   0.464  0.00  0.00    +0.004 C 
ENDBRANCH   5  21
BRANCH  18  23
ATOM     23  O   UNL     1       7.784   0.105  -1.232  0.00  0.00    -0.409 OA
ATOM     24  H   UNL     1       8.785   0.160  -1.095  0.00  0.00    +0.328 HD
ENDBRANCH  18  23
BRANCH   4  25
ATOM     25  O   UNL     1      -4.137  -0.098  -0.576  0.00  0.00    -0.445 OA
BRANCH  25  26
ATOM     26  C   UNL     1      -5.510   0.102  -0.374  0.00  0.00    +0.305 C 
ATOM     27  C   UNL     1      -6.487  -0.786  -1.064  0.00  0.00    +0.136 C 
ATOM     28  O   UNL     1      -5.928   0.994   0.415  0.00  0.00    -0.251 OA
ENDBRANCH  25  26
ENDBRANCH   4  25
TORSDOF 5
