REMARK  Name = 
REMARK  4 active torsions:
REMARK  status: ('A' for Active; 'I' for Inactive)
REMARK    1  A    between atoms: C_1  and  N_2
REMARK    2  A    between atoms: N_2  and  C_3
REMARK    3  A    between atoms: C_3  and  C_4
REMARK    4  A    between atoms: C_4  and  C_5
REMARK                            x       y       z     vdW  Elec       q    Type
REMARK                         _______ _______ _______ _____ _____    ______ ____
ROOT
ATOM      1  C   UNL     1       0.964   0.464  -0.772  0.00  0.00    -0.017 C 
ATOM      2  C   UNL     1      -0.178   0.217  -0.095  0.00  0.00    -0.014 C 
ATOM      3  C   UNL     1      -1.124   1.331   0.186  0.00  0.00    -0.014 A 
ATOM      4  C   UNL     1      -0.592   2.509   0.751  0.00  0.00    +0.009 A 
ATOM      5  C   UNL     1      -1.410   3.597   1.050  0.00  0.00    +0.001 A 
ATOM      6  C   UNL     1      -2.776   3.530   0.800  0.00  0.00    +0.000 A 
ATOM      7  C   UNL     1      -3.330   2.374   0.252  0.00  0.00    +0.004 A 
ATOM      8  C   UNL     1      -2.530   1.262  -0.074  0.00  0.00    -0.039 A 
ATOM      9  C   UNL     1      -3.282   0.056  -0.632  0.00  0.00    +0.040 C 
ATOM     10  C   UNL     1      -2.452  -1.031  -1.319  0.00  0.00    +0.040 C 
ATOM     11  C   UNL     1      -1.643  -1.783  -0.300  0.00  0.00    -0.039 A 
ATOM     12  C   UNL     1      -2.007  -3.080   0.095  0.00  0.00    +0.004 A 
ATOM     13  C   UNL     1      -1.281  -3.743   1.089  0.00  0.00    +0.000 A 
ATOM     14  C   UNL     1      -0.200  -3.109   1.706  0.00  0.00    +0.001 A 
ATOM     15  C   UNL     1       0.161  -1.814   1.326  0.00  0.00    +0.009 A 
ATOM     16  C   UNL     1      -0.553  -1.150   0.316  0.00  0.00    -0.014 A 
ENDROOT
BRANCH   1  17
ATOM     17  C   UNL     1       1.971  -0.583  -1.180  0.00  0.00    +0.043 C 
BRANCH  17  18
ATOM     18  C   UNL     1       3.250  -0.474  -0.344  0.00  0.00    +0.084 C 
BRANCH  18  20
ATOM     19  C   UNL     1       5.065   0.962   0.312  0.00  0.00    +0.101 C 
ATOM     20  N   UNL     1       3.910   0.817  -0.574  0.00  0.00    -0.319 NA
ATOM     21  H   UNL     1       4.267   0.830  -1.559  0.00  0.00    +0.122 HD
ENDBRANCH  18  20
ENDBRANCH  17  18
ENDBRANCH   1  17
TORSDOF 3
