REMARK  Name = 
REMARK  18 active torsions:
REMARK  status: ('A' for Active; 'I' for Inactive)
REMARK    1  A    between atoms: C_1  and  O_2
REMARK    2  A    between atoms: O_2  and  C_3
REMARK    3  A    between atoms: C_4  and  O_5
REMARK    4  A    between atoms: O_5  and  C_6
REMARK    5  A    between atoms: C_9  and  O_10
REMARK    6  A    between atoms: C_11  and  O_12
REMARK    7  A    between atoms: O_12  and  C_13
REMARK    8  A    between atoms: C_14  and  C_15
REMARK    9  A    between atoms: C_20  and  O_21
REMARK   10  A    between atoms: C_22  and  N_23
REMARK   11  A    between atoms: C_24  and  C_26
REMARK   12  A    between atoms: C_29  and  O_30
REMARK   13  A    between atoms: C_31  and  C_32
REMARK   14  A    between atoms: C_32  and  C_33
REMARK   15  A    between atoms: C_34  and  C_35
REMARK   16  A    between atoms: C_34  and  C_36
REMARK   17  A    between atoms: C_42  and  C_43
REMARK   18  A    between atoms: C_42  and  C_44
REMARK                            x       y       z     vdW  Elec       q    Type
REMARK                         _______ _______ _______ _____ _____    ______ ____
ROOT
ATOM      1  C   UNL     1      -2.716   0.716  -0.780  0.00  0.00    +0.130 A 
ATOM      2  C   UNL     1      -2.020  -0.500  -0.618  0.00  0.00    +0.034 A 
ATOM      3  C   UNL     1      -2.788  -1.753  -0.285  0.00  0.00    +0.051 C 
ATOM      4  C   UNL     1      -0.614  -0.528  -0.733  0.00  0.00    +0.149 A 
ATOM      5  C   UNL     1       0.103   0.648  -1.061  0.00  0.00    +0.061 A 
ATOM      6  C   UNL     1      -0.607   1.848  -1.238  0.00  0.00    +0.019 A 
ATOM      7  C   UNL     1      -1.993   1.881  -1.096  0.00  0.00    +0.047 A 
ATOM      8  C   UNL     1       1.510   0.557  -1.202  0.00  0.00    +0.156 A 
ATOM      9  C   UNL     1       2.140  -0.673  -0.972  0.00  0.00    +0.162 A 
ATOM     10  C   UNL     1       1.356  -1.786  -0.636  0.00  0.00    +0.362 A 
ATOM     11  O   UNL     1       1.891  -2.912  -0.452  0.00  0.00    -0.243 OA
ATOM     12  O   UNL     1       0.039  -1.671  -0.535  0.00  0.00    -0.420 OA
ENDROOT
BRANCH   9  13
ATOM     13  N   UNL     1       3.564  -0.792  -1.129  0.00  0.00    -0.273 N 
ATOM     14  C   UNL     1       4.418  -1.283  -0.082  0.00  0.00    +0.249 C 
ATOM     15  O   UNL     1       3.954  -1.434   1.080  0.00  0.00    -0.270 OA
ATOM     16  H   UNL     1       4.006  -0.357  -1.970  0.00  0.00    +0.155 HD
BRANCH  14  17
ATOM     17  C   UNL     1       5.844  -1.584  -0.346  0.00  0.00    +0.038 A 
ATOM     18  C   UNL     1       6.269  -2.003  -1.618  0.00  0.00    +0.016 A 
ATOM     19  C   UNL     1       7.611  -2.308  -1.850  0.00  0.00    +0.046 A 
ATOM     20  C   UNL     1       8.555  -2.181  -0.823  0.00  0.00    +0.120 A 
ATOM     21  C   UNL     1       8.149  -1.737   0.450  0.00  0.00    -0.002 A 
ATOM     22  C   UNL     1       6.790  -1.468   0.685  0.00  0.00    +0.020 A 
BRANCH  20  23
ATOM     23  O   UNL     1       9.892  -2.497  -1.060  0.00  0.00    -0.506 OA
ATOM     24  H   UNL     1      10.206  -2.840  -1.959  0.00  0.00    +0.292 HD
ENDBRANCH  20  23
BRANCH  21  25
ATOM     25  C   UNL     1       9.149  -1.551   1.567  0.00  0.00    +0.066 C 
BRANCH  25  26
ATOM     26  C   UNL     1      10.190  -0.508   1.229  0.00  0.00    -0.023 C 
ATOM     27  C   UNL     1       9.938   0.816   1.106  0.00  0.00    -0.079 C 
ATOM     28  C   UNL     1      11.063   1.762   0.784  0.00  0.00    +0.038 C 
ATOM     29  C   UNL     1       8.549   1.387   1.253  0.00  0.00    +0.038 C 
ENDBRANCH  25  26
ENDBRANCH  21  25
ENDBRANCH  14  17
ENDBRANCH   9  13
BRANCH   8  30
ATOM     30  O   UNL     1       2.311   1.647  -1.558  0.00  0.00    -0.504 OA
ATOM     31  H   UNL     1       1.966   2.574  -1.761  0.00  0.00    +0.292 HD
ENDBRANCH   8  30
BRANCH   1  32
ATOM     32  O   UNL     1      -4.121   0.708  -0.670  0.00  0.00    -0.460 OA
BRANCH  32  36
ATOM     33  C   UNL     1      -6.825  -0.056   0.496  0.00  0.00    +0.192 C 
ATOM     34  C   UNL     1      -7.145   0.601  -0.870  0.00  0.00    +0.244 C 
ATOM     35  C   UNL     1      -6.235   1.812  -1.184  0.00  0.00    +0.226 C 
ATOM     36  C   UNL     1      -4.961   1.817  -0.322  0.00  0.00    +0.340 C 
ATOM     37  O   UNL     1      -5.217   1.822   1.076  0.00  0.00    -0.331 OA
ATOM     38  C   UNL     1      -6.280   0.984   1.537  0.00  0.00    +0.098 C 
ATOM     39  C   UNL     1      -7.428   1.893   2.027  0.00  0.00    +0.044 C 
ATOM     40  C   UNL     1      -5.749   0.227   2.770  0.00  0.00    +0.044 C 
BRANCH  33  42
ATOM     41  C   UNL     1      -6.461  -2.360   0.322  0.00  0.00    +0.194 C 
ATOM     42  O   UNL     1      -5.861  -1.083   0.300  0.00  0.00    -0.373 OA
ENDBRANCH  33  42
BRANCH  35  43
ATOM     43  O   UNL     1      -6.932   3.021  -1.008  0.00  0.00    -0.382 OA
ATOM     44  H   UNL     1      -6.452   3.717  -1.528  0.00  0.00    +0.210 HD
ENDBRANCH  35  43
BRANCH  34  45
ATOM     45  O   UNL     1      -8.521   0.997  -0.923  0.00  0.00    -0.442 OA
BRANCH  45  46
ATOM     46  C   UNL     1      -9.567   0.120  -1.232  0.00  0.00    +0.398 C 
ATOM     47  N   UNL     1     -10.910   0.589  -1.225  0.00  0.00    -0.295 N 
ATOM     48  O   UNL     1      -9.337  -1.083  -1.527  0.00  0.00    -0.227 OA
ATOM     49  H   UNL     1     -11.153   1.547  -0.880  0.00  0.00    +0.148 HD
ATOM     50  H   UNL     1     -11.138   1.548  -0.876  0.00  0.00    +0.148 HD
ENDBRANCH  45  46
ENDBRANCH  34  45
ENDBRANCH  32  36
ENDBRANCH   1  32
TORSDOF 12
