REMARK  Name = 
REMARK  19 active torsions:
REMARK  status: ('A' for Active; 'I' for Inactive)
REMARK    1  A    between atoms: C_1  and  C_2
REMARK    2  A    between atoms: C_4  and  O_5
REMARK    3  A    between atoms: O_5  and  C_6
REMARK    4  A    between atoms: C_8  and  O_9
REMARK    5  A    between atoms: C_10  and  C_57
REMARK    6  A    between atoms: C_11  and  O_12
REMARK    7  A    between atoms: C_17  and  O_18
REMARK    8  A    between atoms: C_19  and  O_20
REMARK    9  A    between atoms: C_23  and  O_24
REMARK   10  A    between atoms: C_26  and  O_27
REMARK   11  A    between atoms: C_29  and  O_30
REMARK   12  A    between atoms: C_35  and  C_36
REMARK   13  A    between atoms: C_37  and  C_38
REMARK   14  A    between atoms: C_39  and  O_40
REMARK   15  A    between atoms: C_41  and  C_42
REMARK   16  A    between atoms: C_57  and  O_58
REMARK   17  A    between atoms: C_60  and  O_61
REMARK   18  A    between atoms: C_62  and  N_63
REMARK   19  A    between atoms: C_64  and  O_65
REMARK                            x       y       z     vdW  Elec       q    Type
REMARK                         _______ _______ _______ _____ _____    ______ ____
ROOT
ATOM      1  C   UNL     1      -6.316   0.987   0.638  0.00  0.00    +0.147 C 
ATOM      2  C   UNL     1      -5.856  -0.473   0.459  0.00  0.00    +0.068 C 
ATOM      3  C   UNL     1      -6.984  -1.509   0.657  0.00  0.00    +0.133 C 
ATOM      4  C   UNL     1      -6.490  -2.980   0.473  0.00  0.00    +0.155 C 
ATOM      5  C   UNL     1      -5.985  -3.271  -0.990  0.00  0.00    +0.138 C 
ATOM      6  C   UNL     1      -4.442  -3.183  -1.156  0.00  0.00    +0.106 C 
ATOM      7  C   UNL     1      -3.643  -4.329  -0.577  0.00  0.00    +0.138 C 
ATOM      8  O   UNL     1      -4.086  -5.006   0.341  0.00  0.00    -0.297 OA
ATOM      9  C   UNL     1      -2.244  -4.581  -1.088  0.00  0.00    +0.108 C 
ATOM     10  C   UNL     1      -1.212  -4.747   0.047  0.00  0.00    +0.150 C 
ATOM     11  C   UNL     1       0.248  -4.759  -0.502  0.00  0.00    +0.143 C 
ATOM     12  C   UNL     1       1.285  -5.230   0.548  0.00  0.00    +0.036 C 
ATOM     13  C   UNL     1       1.714  -4.126   1.532  0.00  0.00    +0.034 C 
ATOM     14  C   UNL     1       2.600  -4.667   2.673  0.00  0.00    +0.117 C 
ATOM     15  C   UNL     1       3.938  -5.295   2.213  0.00  0.00    +0.062 C 
ATOM     16  C   UNL     1       4.903  -4.373   1.420  0.00  0.00    +0.119 C 
ATOM     17  C   UNL     1       5.435  -3.204   2.285  0.00  0.00    +0.063 C 
ATOM     18  C   UNL     1       6.761  -2.590   1.792  0.00  0.00    +0.128 C 
ATOM     19  C   UNL     1       6.641  -1.960   0.391  0.00  0.00    +0.152 C 
ATOM     20  C   UNL     1       7.972  -1.429  -0.053  0.00  0.00    +0.310 C 
ATOM     21  O   UNL     1       8.925  -2.232  -0.237  0.00  0.00    -0.251 OA
ATOM     22  O   UNL     1       8.153  -0.053  -0.239  0.00  0.00    -0.461 OA
ATOM     23  C   UNL     1       9.376   0.641   0.038  0.00  0.00    +0.179 C 
ATOM     24  C   UNL     1      10.536   0.136  -0.841  0.00  0.00    +0.052 C 
ATOM     25  C   UNL     1       9.143   2.177  -0.098  0.00  0.00    +0.055 C 
ATOM     26  C   UNL     1      10.223   2.957   0.687  0.00  0.00    +0.014 C 
ATOM     27  C   UNL     1       9.047   2.651  -1.583  0.00  0.00    +0.127 C 
ATOM     28  C   UNL     1       8.701   4.160  -1.738  0.00  0.00    +0.038 C 
ATOM     29  C   UNL     1       8.942   4.642  -3.180  0.00  0.00    +0.014 C 
ATOM     30  C   UNL     1       7.307   4.476  -1.234  0.00  0.00    -0.021 C 
ATOM     31  C   UNL     1       6.208   4.335  -1.993  0.00  0.00    -0.004 C 
ATOM     32  C   UNL     1       4.826   4.573  -1.537  0.00  0.00    -0.005 C 
ATOM     33  C   UNL     1       4.476   5.032  -0.326  0.00  0.00    -0.027 C 
ATOM     34  C   UNL     1       3.020   5.179   0.007  0.00  0.00    +0.031 C 
ATOM     35  C   UNL     1       2.789   5.470   1.497  0.00  0.00    +0.031 C 
ATOM     36  C   UNL     1       1.370   5.153   1.846  0.00  0.00    -0.027 C 
ATOM     37  C   UNL     1       0.350   5.924   1.449  0.00  0.00    -0.004 C 
ATOM     38  C   UNL     1      -1.035   5.417   1.431  0.00  0.00    -0.000 C 
ATOM     39  C   UNL     1      -1.298   4.175   1.002  0.00  0.00    -0.000 C 
ATOM     40  C   UNL     1      -2.668   3.682   0.827  0.00  0.00    -0.000 C 
ATOM     41  C   UNL     1      -2.887   2.627   0.033  0.00  0.00    -0.000 C 
ATOM     42  C   UNL     1      -4.206   2.008  -0.162  0.00  0.00    -0.002 C 
ATOM     43  C   UNL     1      -5.101   1.866   0.820  0.00  0.00    +0.004 C 
ENDROOT
BRANCH   3  44
ATOM     44  O   UNL     1      -7.564  -1.341   1.931  0.00  0.00    -0.391 OA
ATOM     45  H   UNL     1      -6.864  -1.519   2.612  0.00  0.00    +0.210 HD
ENDBRANCH   3  44
BRANCH   5  46
ATOM     46  O   UNL     1      -6.468  -4.483  -1.523  0.00  0.00    -0.390 OA
ATOM     47  H   UNL     1      -6.175  -5.222  -0.934  0.00  0.00    +0.210 HD
ENDBRANCH   5  46
BRANCH  10  48
ATOM     48  O   UNL     1      -1.376  -3.741   1.018  0.00  0.00    -0.389 OA
ATOM     49  H   UNL     1      -1.249  -2.863   0.564  0.00  0.00    +0.210 HD
ENDBRANCH  10  48
BRANCH  11  50
ATOM     50  O   UNL     1       0.339  -5.584  -1.640  0.00  0.00    -0.389 OA
ATOM     51  H   UNL     1       0.084  -6.504  -1.363  0.00  0.00    +0.210 HD
ENDBRANCH  11  50
BRANCH  14  52
ATOM     52  O   UNL     1       2.847  -3.641   3.599  0.00  0.00    -0.392 OA
ATOM     53  H   UNL     1       2.115  -3.675   4.274  0.00  0.00    +0.210 HD
ENDBRANCH  14  52
BRANCH  16  54
ATOM     54  O   UNL     1       5.977  -5.161   0.969  0.00  0.00    -0.392 OA
ATOM     55  H   UNL     1       5.678  -5.614   0.137  0.00  0.00    +0.210 HD
ENDBRANCH  16  54
BRANCH  18  56
ATOM     56  O   UNL     1       7.159  -1.598   2.705  0.00  0.00    -0.391 OA
ATOM     57  H   UNL     1       7.654  -2.055   3.432  0.00  0.00    +0.210 HD
ENDBRANCH  18  56
BRANCH  27  58
ATOM     58  O   UNL     1       8.091   1.869  -2.257  0.00  0.00    -0.391 OA
ATOM     59  H   UNL     1       8.438   1.700  -3.174  0.00  0.00    +0.210 HD
ENDBRANCH  27  58
BRANCH   4  60
ATOM     60  C   UNL     1      -7.597  -3.921   0.886  0.00  0.00    +0.313 C 
ATOM     61  O   UNL     1      -8.653  -4.001   0.203  0.00  0.00    -0.251 OA
BRANCH  60  62
ATOM     62  O   UNL     1      -7.452  -4.706   2.026  0.00  0.00    -0.480 OA
ATOM     63  H   UNL     1      -8.170  -5.369   2.295  0.00  0.00    +0.295 HD
ENDBRANCH  60  62
ENDBRANCH   4  60
BRANCH   1  64
ATOM     64  O   UNL     1      -7.006   1.405  -0.530  0.00  0.00    -0.341 OA
BRANCH  64  68
ATOM     65  C   UNL     1     -11.440   0.005   0.023  0.00  0.00    +0.041 C 
ATOM     66  C   UNL     1     -10.528   1.160  -0.400  0.00  0.00    +0.148 C 
ATOM     67  O   UNL     1      -9.186   0.794  -0.147  0.00  0.00    -0.343 OA
ATOM     68  C   UNL     1      -8.300   1.909  -0.250  0.00  0.00    +0.281 C 
ATOM     69  C   UNL     1      -8.682   2.909  -1.373  0.00  0.00    +0.189 C 
ATOM     70  C   UNL     1      -9.469   2.210  -2.500  0.00  0.00    +0.116 C 
ATOM     71  C   UNL     1     -10.716   1.483  -1.912  0.00  0.00    +0.162 C 
BRANCH  70  72
ATOM     72  N   UNL     1      -8.598   1.285  -3.230  0.00  0.00    -0.323 NA
ATOM     73  H   UNL     1      -8.486   0.385  -2.703  0.00  0.00    +0.119 HD
ATOM     74  H   UNL     1      -9.048   1.050  -4.146  0.00  0.00    +0.119 HD
ENDBRANCH  70  72
BRANCH  69  75
ATOM     75  O   UNL     1      -7.536   3.540  -1.889  0.00  0.00    -0.385 OA
ATOM     76  H   UNL     1      -7.843   4.345  -2.382  0.00  0.00    +0.210 HD
ENDBRANCH  69  75
BRANCH  71  77
ATOM     77  O   UNL     1     -11.879   2.254  -2.103  0.00  0.00    -0.388 OA
ATOM     78  H   UNL     1     -11.739   3.123  -1.651  0.00  0.00    +0.210 HD
ENDBRANCH  71  77
ENDBRANCH  64  68
ENDBRANCH   1  64
TORSDOF 15
