REMARK  Name = 
REMARK  24 active torsions:
REMARK  status: ('A' for Active; 'I' for Inactive)
REMARK    1  A    between atoms: CG2_1  and  CB_2
REMARK    2  A    between atoms: CB_2  and  OG1_3
REMARK    3  A    between atoms: CB_2  and  CA_4
REMARK    4  A    between atoms: CA_4  and  C_5
REMARK    5  A    between atoms: CA_4  and  N_7
REMARK    6  A    between atoms: C_5  and  O_6
REMARK    7  A    between atoms: C_8  and  CA_10
REMARK    8  A    between atoms: CA_15  and  N_16
REMARK    9  A    between atoms: C_17  and  CA_19
REMARK   10  A    between atoms: CA_19  and  N_20
REMARK   11  A    between atoms: CA_19  and  CB_21
REMARK   12  A    between atoms: CB_21  and  CG_22
REMARK   13  A    between atoms: CA_31  and  CB_32
REMARK   14  A    between atoms: CB_32  and  CG_33
REMARK   15  A    between atoms: CA_42  and  CB_43
REMARK   16  A    between atoms: CB_43  and  CG_44
REMARK   17  A    between atoms: CA_56  and  CB_57
REMARK   18  A    between atoms: CB_57  and  CG_58
REMARK   19  A    between atoms: CG_58  and  CD_59
REMARK   20  A    between atoms: CD_59  and  CE_60
REMARK   21  A    between atoms: CE_60  and  NZ_61
REMARK   22  A    between atoms: CA_65  and  CB_66
REMARK   23  A    between atoms: CB_66  and  CG2_67
REMARK   24  A    between atoms: CB_66  and  OG1_68
REMARK                            x       y       z     vdW  Elec       q    Type
REMARK                         _______ _______ _______ _____ _____    ______ ____
ROOT
ATOM      1  CA  CYS A   7      -0.924   3.910   1.688  0.00  0.00    +0.169 C 
ATOM      2  CB  CYS A   7       0.503   3.403   1.930  0.00  0.00    +0.112 C 
ATOM      3  SG  CYS A   7       0.451   1.718   2.617  0.00  0.00    -0.091 S 
ATOM      4  SG  CYS A   2       2.560   1.437   2.475  0.00  0.00    -0.091 S 
ATOM      5  CB  CYS A   2       2.486   0.686   0.815  0.00  0.00    +0.112 C 
ATOM      6  CA  CYS A   2       3.715  -0.208   0.555  0.00  0.00    +0.169 C 
ATOM      7  C   CYS A   2       3.331  -1.333  -0.379  0.00  0.00    +0.235 C 
ATOM      8  O   CYS A   2       3.618  -1.281  -1.608  0.00  0.00    -0.274 OA
ATOM      9  N   PHE A   3       2.574  -2.437   0.142  0.00  0.00    -0.302 N 
ATOM     10  CA  PHE A   3       2.069  -3.536  -0.685  0.00  0.00    +0.163 C 
ATOM     11  C   PHE A   3       0.580  -3.678  -0.492  0.00  0.00    +0.234 C 
ATOM     12  O   PHE A   3       0.076  -3.495   0.649  0.00  0.00    -0.274 OA
ATOM     13  N   TRP A   4      -0.252  -4.099  -1.585  0.00  0.00    -0.302 N 
ATOM     14  CA  TRP A   4      -1.651  -4.484  -1.376  0.00  0.00    +0.163 C 
ATOM     15  C   TRP A   4      -2.524  -3.255  -1.328  0.00  0.00    +0.234 C 
ATOM     16  O   TRP A   4      -2.731  -2.583  -2.376  0.00  0.00    -0.274 OA
ATOM     17  N   LYS A   5      -3.099  -2.844  -0.079  0.00  0.00    -0.302 N 
ATOM     18  CA  LYS A   5      -4.065  -1.743   0.023  0.00  0.00    +0.159 C 
ATOM     19  C   LYS A   5      -3.362  -0.413  -0.117  0.00  0.00    +0.234 C 
ATOM     20  O   LYS A   5      -2.123  -0.326   0.109  0.00  0.00    -0.274 OA
ATOM     21  N   THR A   6      -4.116   0.758  -0.486  0.00  0.00    -0.300 N 
ATOM     22  CA  THR A   6      -3.538   2.107  -0.566  0.00  0.00    +0.187 C 
ATOM     23  C   THR A   6      -2.763   2.454   0.688  0.00  0.00    +0.237 C 
ATOM     24  O   THR A   6      -3.207   2.122   1.824  0.00  0.00    -0.274 OA
ATOM     25  N   CYS A   7      -1.532   3.178   0.572  0.00  0.00    -0.302 N 
ATOM     26  H   PHE A   3       2.413  -2.481   1.175  0.00  0.00    +0.150 HD
ATOM     27  H   TRP A   4       0.172  -4.198  -2.537  0.00  0.00    +0.150 HD
ATOM     28  H   LYS A   5      -2.790  -3.331   0.789  0.00  0.00    +0.150 HD
ATOM     29  H   THR A   6      -5.106   0.621  -0.790  0.00  0.00    +0.150 HD
ATOM     30  H   CYS A   7      -1.120   3.315  -0.383  0.00  0.00    +0.150 HD
ENDROOT
BRANCH   1  32
ATOM     31  N   THR A   8       0.018   6.000   0.532  0.00  0.00    -0.306 N 
ATOM     32  C   CYS A   7      -0.974   5.383   1.372  0.00  0.00    +0.235 C 
ATOM     33  O   CYS A   7      -1.939   6.069   1.807  0.00  0.00    -0.274 OA
ATOM     34  H   THR A   8       1.008   5.667   0.569  0.00  0.00    +0.149 HD
BRANCH  31  35
ATOM     35  CA  THR A   8      -0.321   7.077  -0.404  0.00  0.00    +0.126 C 
BRANCH  35  37
ATOM     36  CG2 THR A   8      -0.235   9.619  -0.719  0.00  0.00    +0.039 C 
ATOM     37  CB  THR A   8       0.136   8.437   0.186  0.00  0.00    +0.134 C 
BRANCH  37  38
ATOM     38  OG1 THR A   8      -0.477   8.641   1.436  0.00  0.00    -0.390 OA
ATOM     39  HG1 THR A   8       0.082   8.181   2.115  0.00  0.00    +0.210 HD
ENDBRANCH  37  38
ENDBRANCH  35  37
BRANCH  35  40
ATOM     40  C   THR A   8       0.335   6.766  -1.768  0.00  0.00    +0.180 C 
BRANCH  40  41
ATOM     41  O   THR A   8      -0.311   7.449  -2.809  0.00  0.00    -0.393 OA
ATOM     42  H   THR A   8      -1.155   6.962  -2.986  0.00  0.00    +0.209 HD
ENDBRANCH  40  41
ENDBRANCH  35  40
ENDBRANCH  31  35
ENDBRANCH   1  32
BRANCH   6  43
ATOM     43  N   CYS A   2       4.832   0.583   0.019  0.00  0.00    -0.302 N 
ATOM     44  C   PHE A   1       5.726   1.330   0.865  0.00  0.00    +0.231 C 
ATOM     45  O   PHE A   1       5.670   1.193   2.117  0.00  0.00    -0.274 OA
ATOM     46  H   CYS A   2       4.977   0.630  -1.012  0.00  0.00    +0.150 HD
BRANCH  44  47
ATOM     47  CA  PHE A   1       6.796   2.228   0.280  0.00  0.00    +0.142 C 
BRANCH  47  48
ATOM     48  N   PHE A   1       6.297   3.014  -0.857  0.00  0.00    -0.320 NA
ATOM     49  H1  PHE A   1       5.374   3.434  -0.603  0.00  0.00    +0.119 HD
ATOM     50  H2  PHE A   1       6.158   2.399  -1.690  0.00  0.00    +0.119 HD
ENDBRANCH  47  48
BRANCH  47  51
ATOM     51  CB  PHE A   1       8.035   1.412  -0.135  0.00  0.00    +0.063 C 
BRANCH  51  52
ATOM     52  CG  PHE A   1       8.720   0.800   1.064  0.00  0.00    -0.045 A 
ATOM     53  CD1 PHE A   1       9.523   1.600   1.896  0.00  0.00    +0.004 A 
ATOM     54  CE1 PHE A   1      10.117   1.054   3.038  0.00  0.00    +0.000 A 
ATOM     55  CZ  PHE A   1       9.915  -0.291   3.357  0.00  0.00    +0.000 A 
ATOM     56  CE2 PHE A   1       9.118  -1.091   2.532  0.00  0.00    +0.000 A 
ATOM     57  CD2 PHE A   1       8.517  -0.549   1.394  0.00  0.00    +0.004 A 
ENDBRANCH  51  52
ENDBRANCH  47  51
ENDBRANCH  44  47
ENDBRANCH   6  43
BRANCH  22  58
ATOM     58  CB  THR A   6      -4.635   3.168  -0.869  0.00  0.00    +0.141 C 
ATOM     59  CG2 THR A   6      -5.677   3.320   0.256  0.00  0.00    +0.040 C 
BRANCH  58  60
ATOM     60  OG1 THR A   6      -4.064   4.410  -1.179  0.00  0.00    -0.390 OA
ATOM     61  HG1 THR A   6      -3.595   4.748  -0.368  0.00  0.00    +0.210 HD
ENDBRANCH  58  60
ENDBRANCH  22  58
BRANCH  10  62
ATOM     62  CB  PHE A   3       2.768  -4.848  -0.301  0.00  0.00    +0.067 C 
BRANCH  62  63
ATOM     63  CG  PHE A   3       4.253  -4.777  -0.556  0.00  0.00    -0.045 A 
ATOM     64  CD1 PHE A   3       5.125  -4.306   0.442  0.00  0.00    +0.004 A 
ATOM     65  CE1 PHE A   3       6.495  -4.199   0.188  0.00  0.00    +0.000 A 
ATOM     66  CZ  PHE A   3       7.004  -4.560  -1.063  0.00  0.00    +0.000 A 
ATOM     67  CE2 PHE A   3       6.145  -5.025  -2.062  0.00  0.00    +0.000 A 
ATOM     68  CD2 PHE A   3       4.772  -5.125  -1.814  0.00  0.00    +0.004 A 
ENDBRANCH  62  63
ENDBRANCH  10  62
BRANCH  14  69
ATOM     69  CB  TRP A   4      -2.111  -5.465  -2.471  0.00  0.00    +0.069 C 
BRANCH  69  70
ATOM     70  CG  TRP A   4      -3.485  -6.003  -2.181  0.00  0.00    -0.020 A 
ATOM     71  CD1 TRP A   4      -3.819  -6.899  -1.170  0.00  0.00    +0.087 A 
ATOM     72  NE1 TRP A   4      -5.155  -7.106  -1.142  0.00  0.00    -0.360 N 
ATOM     73  CE2 TRP A   4      -5.668  -6.342  -2.122  0.00  0.00    +0.047 A 
ATOM     74  CD2 TRP A   4      -4.683  -5.647  -2.775  0.00  0.00    +0.003 A 
ATOM     75  CE3 TRP A   4      -4.972  -4.773  -3.822  0.00  0.00    +0.010 A 
ATOM     76  CZ3 TRP A   4      -6.321  -4.624  -4.199  0.00  0.00    +0.001 A 
ATOM     77  CH2 TRP A   4      -7.335  -5.340  -3.527  0.00  0.00    +0.002 A 
ATOM     78  CZ2 TRP A   4      -7.012  -6.208  -2.467  0.00  0.00    +0.026 A 
ATOM     79  HE1 TRP A   4      -5.679  -7.721  -0.478  0.00  0.00    +0.165 HD
ENDBRANCH  69  70
ENDBRANCH  14  69
BRANCH  18  80
ATOM     80  CB  LYS A   5      -4.816  -1.848   1.369  0.00  0.00    +0.032 C 
BRANCH  80  81
ATOM     81  CG  LYS A   5      -5.961  -0.834   1.516  0.00  0.00    +0.003 C 
BRANCH  81  82
ATOM     82  CD  LYS A   5      -6.832  -1.149   2.739  0.00  0.00    +0.015 C 
BRANCH  82  83
ATOM     83  CE  LYS A   5      -7.955  -0.118   2.924  0.00  0.00    +0.077 C 
BRANCH  83  84
ATOM     84  NZ  LYS A   5      -7.409   1.209   3.195  0.00  0.00    -0.330 NA
ATOM     85  HZ1 LYS A   5      -8.214   1.861   3.347  0.00  0.00    +0.118 HD
ATOM     86  HZ2 LYS A   5      -6.885   1.169   4.102  0.00  0.00    +0.118 HD
ENDBRANCH  83  84
ENDBRANCH  82  83
ENDBRANCH  81  82
ENDBRANCH  80  81
ENDBRANCH  18  80
TORSDOF 22
