REMARK  Name = 
REMARK  5 active torsions:
REMARK  status: ('A' for Active; 'I' for Inactive)
REMARK    1  A    between atoms: C_1  and  C_2
REMARK    2  A    between atoms: C_9  and  C_10
REMARK    3  A    between atoms: C_10  and  O_11
REMARK    4  A    between atoms: C_19  and  N_20
REMARK    5  A    between atoms: N_23  and  C_24
REMARK                            x       y       z     vdW  Elec       q    Type
REMARK                         _______ _______ _______ _____ _____    ______ ____
ROOT
ATOM      1  C   UNL     1      -2.175   2.718  -0.575  0.00  0.00    +0.034 C 
ATOM      2  C   UNL     1      -2.161   1.994   0.776  0.00  0.00    +0.122 C 
ATOM      3  C   UNL     1      -0.761   2.045   1.410  0.00  0.00    +0.254 C 
ATOM      4  O   UNL     1       0.116   1.153   0.732  0.00  0.00    -0.486 OA
ATOM      5  C   UNL     1      -0.316  -0.121   0.357  0.00  0.00    +0.168 A 
ATOM      6  C   UNL     1      -1.696  -0.402   0.329  0.00  0.00    +0.097 A 
ATOM      7  N   UNL     1      -2.603   0.593   0.599  0.00  0.00    -0.337 N 
ATOM      8  C   UNL     1      -3.944   0.324   0.603  0.00  0.00    +0.105 A 
ATOM      9  C   UNL     1      -4.435  -0.965   0.332  0.00  0.00    +0.122 A 
ATOM     10  C   UNL     1      -3.514  -1.986   0.026  0.00  0.00    +0.204 A 
ATOM     11  O   UNL     1      -3.920  -3.151  -0.240  0.00  0.00    -0.286 OA
ATOM     12  C   UNL     1      -2.135  -1.707   0.014  0.00  0.00    +0.052 A 
ATOM     13  C   UNL     1      -1.187  -2.695  -0.312  0.00  0.00    +0.054 A 
ATOM     14  C   UNL     1       0.177  -2.394  -0.325  0.00  0.00    +0.149 A 
ATOM     15  F   UNL     1       1.068  -3.370  -0.633  0.00  0.00    -0.203 F 
ATOM     16  C   UNL     1       0.621  -1.107   0.012  0.00  0.00    +0.110 A 
ENDROOT
BRANCH  16  17
ATOM     17  N   UNL     1       2.024  -0.799   0.027  0.00  0.00    -0.322 N 
ATOM     18  C   UNL     1       2.707  -0.560   1.300  0.00  0.00    +0.120 C 
ATOM     19  C   UNL     1       3.770   0.524   1.117  0.00  0.00    +0.103 C 
ATOM     20  N   UNL     1       4.667   0.175  -0.004  0.00  0.00    -0.302 NA
ATOM     21  C   UNL     1       5.727   1.186  -0.130  0.00  0.00    +0.105 C 
ATOM     22  C   UNL     1       3.903   0.088  -1.265  0.00  0.00    +0.103 C 
ATOM     23  C   UNL     1       2.844  -1.012  -1.168  0.00  0.00    +0.120 C 
ENDBRANCH  16  17
BRANCH   9  24
ATOM     24  C   UNL     1      -5.903  -1.210   0.357  0.00  0.00    +0.342 C 
ATOM     25  O   UNL     1      -6.700  -0.270   0.628  0.00  0.00    -0.245 OA
BRANCH  24  26
ATOM     26  O   UNL     1      -6.422  -2.474   0.087  0.00  0.00    -0.477 OA
ATOM     27  H   UNL     1      -7.421  -2.641   0.104  0.00  0.00    +0.295 HD
ENDBRANCH  24  26
ENDBRANCH   9  24
TORSDOF 3
