REMARK  Name = 
REMARK  2 active torsions:
REMARK  status: ('A' for Active; 'I' for Inactive)
REMARK    1  A    between atoms: C_1  and  N_2
REMARK    2  A    between atoms: C_20  and  C_21
REMARK                            x       y       z     vdW  Elec       q    Type
REMARK                         _______ _______ _______ _____ _____    ______ ____
ROOT
ATOM      1  C   UNL     1       4.710  -1.886   0.789  0.00  0.00    +0.105 C 
ATOM      2  N   UNL     1       3.405  -1.257   0.538  0.00  0.00    -0.302 NA
ATOM      3  C   UNL     1       3.104  -1.250  -0.914  0.00  0.00    +0.103 C 
ATOM      4  C   UNL     1       2.046  -0.196  -1.306  0.00  0.00    +0.122 C 
ATOM      5  N   UNL     1       1.241   0.199  -0.145  0.00  0.00    -0.312 N 
ATOM      6  C   UNL     1       1.921   0.606   1.094  0.00  0.00    +0.122 C 
ATOM      7  C   UNL     1       3.367   0.101   1.108  0.00  0.00    +0.103 C 
ATOM      8  C   UNL     1      -0.193   0.080  -0.173  0.00  0.00    +0.132 C 
ATOM      9  N   UNL     1      -0.709  -1.005  -0.677  0.00  0.00    -0.230 NA
ATOM     10  C   UNL     1      -2.076  -1.423  -0.827  0.00  0.00    +0.087 A 
ATOM     11  C   UNL     1      -2.343  -2.333  -1.862  0.00  0.00    +0.030 A 
ATOM     12  C   UNL     1      -3.613  -2.889  -2.019  0.00  0.00    +0.002 A 
ATOM     13  C   UNL     1      -4.631  -2.564  -1.126  0.00  0.00    +0.002 A 
ATOM     14  C   UNL     1      -4.380  -1.678  -0.078  0.00  0.00    +0.025 A 
ATOM     15  C   UNL     1      -3.112  -1.092   0.083  0.00  0.00    +0.057 A 
ATOM     16  N   UNL     1      -2.921  -0.186   1.175  0.00  0.00    -0.307 N 
ATOM     17  C   UNL     1      -2.223   1.040   0.995  0.00  0.00    +0.080 A 
ATOM     18  C   UNL     1      -1.017   1.196   0.333  0.00  0.00    +0.044 A 
ATOM     19  C   UNL     1      -0.601   2.537   0.291  0.00  0.00    +0.024 A 
ATOM     20  C   UNL     1      -1.467   3.404   0.948  0.00  0.00    -0.011 A 
ATOM     21  C   UNL     1      -1.324   4.887   1.017  0.00  0.00    +0.051 C 
ATOM     22  S   UNL     1      -2.768   2.529   1.555  0.00  0.00    -0.078 S 
ATOM     23  H   UNL     1      -3.604  -0.220   1.965  0.00  0.00    +0.153 HD
ENDROOT
TORSDOF 0
