REMARK  Name = 
REMARK  13 active torsions:
REMARK  status: ('A' for Active; 'I' for Inactive)
REMARK    1  A    between atoms: C_1  and  C_2
REMARK    2  A    between atoms: C_2  and  C_3
REMARK    3  A    between atoms: C_3  and  C_4
REMARK    4  A    between atoms: C_6  and  C_30
REMARK    5  A    between atoms: C_7  and  C_27
REMARK    6  A    between atoms: N_8  and  C_9
REMARK    7  A    between atoms: C_9  and  C_10
REMARK    8  A    between atoms: C_13  and  C_16
REMARK    9  A    between atoms: C_17  and  C_22
REMARK   10  A    between atoms: C_27  and  O_28
REMARK   11  A    between atoms: C_30  and  C_31
REMARK   12  A    between atoms: C_30  and  C_32
REMARK   13  A    between atoms: C_30  and  O_33
REMARK                            x       y       z     vdW  Elec       q    Type
REMARK                         _______ _______ _______ _____ _____    ______ ____
ROOT
ATOM      1  C   UNL     1      -0.955  -0.550  -2.007  0.00  0.00    +0.159 C 
ENDROOT
BRANCH   1   2
ATOM      2  C   UNL     1       0.456  -0.210  -1.601  0.00  0.00    -0.028 A 
ATOM      3  C   UNL     1       0.797   1.111  -1.270  0.00  0.00    +0.006 A 
ATOM      4  C   UNL     1       2.096   1.425  -0.862  0.00  0.00    +0.009 A 
ATOM      5  C   UNL     1       3.073   0.421  -0.777  0.00  0.00    -0.017 A 
ATOM      6  C   UNL     1       2.744  -0.893  -1.146  0.00  0.00    +0.009 A 
ATOM      7  C   UNL     1       1.445  -1.206  -1.555  0.00  0.00    +0.006 A 
BRANCH   5   8
ATOM      8  C   UNL     1       4.441   0.749  -0.320  0.00  0.00    -0.007 A 
ATOM      9  C   UNL     1       5.029   0.130   0.816  0.00  0.00    +0.028 A 
ATOM     10  C   UNL     1       6.365   0.432   1.140  0.00  0.00    +0.012 A 
ATOM     11  C   UNL     1       7.098   1.341   0.374  0.00  0.00    +0.001 A 
ATOM     12  C   UNL     1       6.509   1.964  -0.725  0.00  0.00    +0.001 A 
ATOM     13  C   UNL     1       5.189   1.671  -1.070  0.00  0.00    +0.009 A 
BRANCH   9  14
ATOM     14  C   UNL     1       4.266  -0.782   1.705  0.00  0.00    +0.180 A 
ATOM     15  N   UNL     1       2.936  -0.721   1.914  0.00  0.00    -0.108 NA
ATOM     16  N   UNL     1       2.678  -1.686   2.785  0.00  0.00    -0.023 NA
ATOM     17  N   UNL     1       3.799  -2.314   3.108  0.00  0.00    -0.046 NA
ATOM     18  N   UNL     1       4.803  -1.764   2.449  0.00  0.00    -0.239 N 
ATOM     19  H   UNL     1       5.799  -2.070   2.508  0.00  0.00    +0.192 HD
ENDBRANCH   9  14
ENDBRANCH   5   8
ENDBRANCH   1   2
BRANCH   1  24
ATOM     20  C   UNL     1      -2.068  -0.915   0.233  0.00  0.00    +0.111 A 
ATOM     21  N   UNL     1      -2.904  -0.296   1.090  0.00  0.00    -0.233 NA
ATOM     22  C   UNL     1      -3.261   0.847   0.468  0.00  0.00    +0.105 A 
ATOM     23  C   UNL     1      -2.645   0.890  -0.781  0.00  0.00    +0.153 A 
ATOM     24  N   UNL     1      -1.896  -0.229  -0.923  0.00  0.00    -0.318 N 
BRANCH  22  25
ATOM     25  C   UNL     1      -4.259   1.838   1.056  0.00  0.00    +0.104 C 
ATOM     26  C   UNL     1      -4.598   1.477   2.518  0.00  0.00    +0.048 C 
ATOM     27  C   UNL     1      -5.554   1.812   0.231  0.00  0.00    +0.048 C 
BRANCH  25  28
ATOM     28  O   UNL     1      -3.732   3.141   1.024  0.00  0.00    -0.383 OA
ATOM     29  H   UNL     1      -2.873   3.134   1.524  0.00  0.00    +0.211 HD
ENDBRANCH  25  28
ENDBRANCH  22  25
BRANCH  23  30
ATOM     30  C   UNL     1      -2.802   1.940  -1.807  0.00  0.00    +0.355 C 
ATOM     31  O   UNL     1      -2.760   3.157  -1.485  0.00  0.00    -0.243 OA
BRANCH  30  32
ATOM     32  O   UNL     1      -3.012   1.592  -3.137  0.00  0.00    -0.476 OA
ATOM     33  H   UNL     1      -3.122   2.303  -3.850  0.00  0.00    +0.295 HD
ENDBRANCH  30  32
ENDBRANCH  23  30
BRANCH  20  34
ATOM     34  C   UNL     1      -1.460  -2.255   0.549  0.00  0.00    +0.074 C 
BRANCH  34  36
ATOM     35  C   UNL     1      -2.910  -3.633  -1.022  0.00  0.00    +0.004 C 
ATOM     36  C   UNL     1      -2.490  -3.385   0.426  0.00  0.00    +0.004 C 
ENDBRANCH  34  36
ENDBRANCH  20  34
ENDBRANCH   1  24
TORSDOF 10
