REMARK  Name = 
REMARK  8 active torsions:
REMARK  status: ('A' for Active; 'I' for Inactive)
REMARK    1  A    between atoms: C_1  and  N_2
REMARK    2  A    between atoms: N_2  and  C_3
REMARK    3  A    between atoms: N_2  and  C_4
REMARK    4  A    between atoms: C_4  and  C_5
REMARK    5  A    between atoms: C_5  and  C_6
REMARK    6  A    between atoms: C_19  and  C_20
REMARK    7  A    between atoms: C_20  and  C_21
REMARK    8  A    between atoms: C_21  and  O_22
REMARK                            x       y       z     vdW  Elec       q    Type
REMARK                         _______ _______ _______ _____ _____    ______ ____
ROOT
ATOM      1  C   UNL     1       0.598  -1.146   1.041  0.00  0.00    -0.017 C 
ATOM      2  C   UNL     1      -0.400  -1.051   0.136  0.00  0.00    -0.011 C 
ATOM      3  C   UNL     1      -0.719  -2.217  -0.727  0.00  0.00    -0.011 A 
ATOM      4  C   UNL     1       0.345  -2.820  -1.429  0.00  0.00    +0.009 A 
ATOM      5  C   UNL     1       0.126  -3.909  -2.270  0.00  0.00    +0.001 A 
ATOM      6  C   UNL     1      -1.158  -4.416  -2.431  0.00  0.00    +0.000 A 
ATOM      7  C   UNL     1      -2.229  -3.835  -1.754  0.00  0.00    +0.007 A 
ATOM      8  C   UNL     1      -2.040  -2.737  -0.893  0.00  0.00    -0.003 A 
ATOM      9  C   UNL     1      -3.301  -2.205  -0.225  0.00  0.00    +0.265 C 
ATOM     10  O   UNL     1      -3.100  -1.182   0.745  0.00  0.00    -0.487 OA
ATOM     11  C   UNL     1      -2.583   0.058   0.390  0.00  0.00    +0.129 A 
ATOM     12  C   UNL     1      -1.240   0.155   0.032  0.00  0.00    +0.024 A 
ATOM     13  C   UNL     1      -0.716   1.390  -0.381  0.00  0.00    +0.016 A 
ATOM     14  C   UNL     1      -1.527   2.537  -0.382  0.00  0.00    -0.036 A 
ATOM     15  C   UNL     1      -2.873   2.431   0.006  0.00  0.00    +0.008 A 
ATOM     16  C   UNL     1      -3.397   1.194   0.396  0.00  0.00    +0.046 A 
ENDROOT
BRANCH   1  17
ATOM     17  C   UNL     1       0.979  -0.060   2.016  0.00  0.00    +0.043 C 
BRANCH  17  18
ATOM     18  C   UNL     1       2.138   0.806   1.483  0.00  0.00    +0.088 C 
BRANCH  18  20
ATOM     19  C   UNL     1       4.364   1.609   1.975  0.00  0.00    +0.104 C 
ATOM     20  N   UNL     1       3.404   0.513   2.189  0.00  0.00    -0.308 NA
ATOM     21  C   UNL     1       3.993  -0.751   1.714  0.00  0.00    +0.104 C 
ENDBRANCH  18  20
ENDBRANCH  17  18
ENDBRANCH   1  17
BRANCH  14  22
ATOM     22  C   UNL     1      -0.971   3.855  -0.844  0.00  0.00    +0.155 C 
BRANCH  22  23
ATOM     23  C   UNL     1      -1.108   3.978  -2.327  0.00  0.00    +0.309 C 
ATOM     24  O   UNL     1      -2.141   4.502  -2.824  0.00  0.00    -0.251 OA
BRANCH  23  25
ATOM     25  O   UNL     1      -0.115   3.472  -3.159  0.00  0.00    -0.480 OA
ATOM     26  H   UNL     1      -0.201   3.531  -4.167  0.00  0.00    +0.295 HD
ENDBRANCH  23  25
ENDBRANCH  22  23
ENDBRANCH  14  22
TORSDOF 6
