REMARK  Name = 
REMARK  8 active torsions:
REMARK  status: ('A' for Active; 'I' for Inactive)
REMARK    1  A    between atoms: O_1  and  C_2
REMARK    2  A    between atoms: C_2  and  C_4
REMARK    3  A    between atoms: C_6  and  N_11
REMARK    4  A    between atoms: C_9  and  O_10
REMARK    5  A    between atoms: N_12  and  C_13
REMARK    6  A    between atoms: C_16  and  O_17
REMARK    7  A    between atoms: C_18  and  C_20
REMARK    8  A    between atoms: C_20  and  O_21
REMARK                            x       y       z     vdW  Elec       q    Type
REMARK                         _______ _______ _______ _____ _____    ______ ____
ROOT
ATOM      1  N   UNL     1      -0.522   0.938  -0.058  0.00  0.00    -0.149 NA
ATOM      2  N   UNL     1       0.389   0.052   0.026  0.00  0.00    -0.149 NA
ENDROOT
BRANCH   1   5
ATOM      3  C   UNL     1      -3.724  -1.049  -0.154  0.00  0.00    +0.102 A 
ATOM      4  C   UNL     1      -2.351  -0.737  -0.091  0.00  0.00    +0.048 A 
ATOM      5  C   UNL     1      -1.913   0.600  -0.120  0.00  0.00    +0.087 A 
ATOM      6  C   UNL     1      -2.852   1.628  -0.212  0.00  0.00    +0.033 A 
ATOM      7  C   UNL     1      -4.215   1.336  -0.274  0.00  0.00    +0.048 A 
ATOM      8  C   UNL     1      -4.660   0.007  -0.246  0.00  0.00    +0.131 A 
BRANCH   3   9
ATOM      9  C   UNL     1      -4.154  -2.472  -0.121  0.00  0.00    +0.340 C 
ATOM     10  O   UNL     1      -3.295  -3.392  -0.038  0.00  0.00    -0.245 OA
BRANCH   9  11
ATOM     11  O   UNL     1      -5.502  -2.814  -0.181  0.00  0.00    -0.477 OA
ATOM     12  H   UNL     1      -5.795  -3.783  -0.159  0.00  0.00    +0.295 HD
ENDBRANCH   9  11
ENDBRANCH   3   9
BRANCH   8  13
ATOM     13  O   UNL     1      -6.029  -0.255  -0.310  0.00  0.00    -0.506 OA
ATOM     14  H   UNL     1      -6.712   0.491  -0.377  0.00  0.00    +0.292 HD
ENDBRANCH   8  13
ENDBRANCH   1   5
BRANCH   2  15
ATOM     15  C   UNL     1       1.779   0.391   0.089  0.00  0.00    +0.087 A 
ATOM     16  C   UNL     1       2.214   1.725   0.068  0.00  0.00    +0.033 A 
ATOM     17  C   UNL     1       3.576   2.020   0.122  0.00  0.00    +0.048 A 
ATOM     18  C   UNL     1       4.527   0.996   0.196  0.00  0.00    +0.131 A 
ATOM     19  C   UNL     1       4.099  -0.355   0.260  0.00  0.00    +0.102 A 
ATOM     20  C   UNL     1       2.723  -0.637   0.184  0.00  0.00    +0.048 A 
BRANCH  18  21
ATOM     21  O   UNL     1       5.875   1.359   0.168  0.00  0.00    -0.506 OA
ATOM     22  H   UNL     1       6.630   0.698   0.046  0.00  0.00    +0.292 HD
ENDBRANCH  18  21
BRANCH  19  23
ATOM     23  C   UNL     1       5.037  -1.485   0.438  0.00  0.00    +0.340 C 
ATOM     24  O   UNL     1       6.084  -1.352   1.126  0.00  0.00    -0.245 OA
BRANCH  23  25
ATOM     25  O   UNL     1       4.734  -2.729  -0.109  0.00  0.00    -0.477 OA
ATOM     26  H   UNL     1       5.354  -3.520   0.021  0.00  0.00    +0.295 HD
ENDBRANCH  23  25
ENDBRANCH  19  23
ENDBRANCH   2  15
TORSDOF 8
