REMARK  Name = 
REMARK  9 active torsions:
REMARK  status: ('A' for Active; 'I' for Inactive)
REMARK    1  A    between atoms: C_1  and  O_2
REMARK    2  A    between atoms: O_2  and  C_3
REMARK    3  A    between atoms: C_10  and  S_12
REMARK    4  A    between atoms: S_12  and  C_14
REMARK    5  A    between atoms: C_14  and  C_15
REMARK    6  A    between atoms: C_18  and  C_19
REMARK    7  A    between atoms: C_20  and  O_21
REMARK    8  A    between atoms: O_21  and  C_22
REMARK    9  A    between atoms: C_23  and  C_24
REMARK                            x       y       z     vdW  Elec       q    Type
REMARK                         _______ _______ _______ _____ _____    ______ ____
ROOT
ATOM      1  S   UNL     1      -0.473   0.814  -0.785  0.00  0.00    +0.095 S 
ATOM      2  O   UNL     1      -0.828   0.575  -2.246  0.00  0.00    -0.249 OA
ENDROOT
BRANCH   1  10
ATOM      3  C   UNL     1       5.593   2.082  -1.346  0.00  0.00    +0.122 A 
ATOM      4  C   UNL     1       4.590   1.148  -1.710  0.00  0.00    +0.073 A 
ATOM      5  C   UNL     1       3.291   1.389  -1.270  0.00  0.00    +0.070 A 
ATOM      6  C   UNL     1       2.967   2.477  -0.517  0.00  0.00    +0.090 A 
ATOM      7  C   UNL     1       3.921   3.417  -0.139  0.00  0.00    +0.033 A 
ATOM      8  C   UNL     1       5.247   3.210  -0.562  0.00  0.00    +0.048 A 
ATOM      9  N   UNL     1       1.654   2.474  -0.226  0.00  0.00    -0.220 NA
ATOM     10  C   UNL     1       1.219   1.343  -0.839  0.00  0.00    +0.198 A 
ATOM     11  N   UNL     1       2.192   0.657  -1.485  0.00  0.00    -0.331 N 
ATOM     12  H   UNL     1       2.106  -0.233  -2.024  0.00  0.00    +0.168 HD
BRANCH   3  14
ATOM     13  C   UNL     1       7.420   0.850  -2.523  0.00  0.00    +0.277 C 
ATOM     14  O   UNL     1       6.932   1.931  -1.737  0.00  0.00    -0.495 OA
ENDBRANCH   3  14
ENDBRANCH   1  10
BRANCH   1  15
ATOM     15  C   UNL     1      -0.406  -0.834  -0.050  0.00  0.00    +0.167 C 
BRANCH  15  16
ATOM     16  C   UNL     1      -1.797  -1.383   0.108  0.00  0.00    +0.060 A 
ATOM     17  N   UNL     1      -2.289  -2.163  -0.891  0.00  0.00    -0.258 NA
ATOM     18  C   UNL     1      -3.537  -2.693  -0.854  0.00  0.00    +0.118 A 
ATOM     19  C   UNL     1      -4.374  -2.452   0.239  0.00  0.00    +0.010 A 
ATOM     20  C   UNL     1      -5.755  -3.047   0.261  0.00  0.00    +0.049 C 
ATOM     21  C   UNL     1      -3.919  -1.613   1.273  0.00  0.00    +0.129 A 
ATOM     22  C   UNL     1      -2.615  -1.073   1.222  0.00  0.00    +0.014 A 
ATOM     23  C   UNL     1      -2.095  -0.213   2.349  0.00  0.00    +0.049 C 
BRANCH  21  24
ATOM     24  O   UNL     1      -4.753  -1.327   2.358  0.00  0.00    -0.494 OA
ATOM     25  C   UNL     1      -5.727  -0.292   2.294  0.00  0.00    +0.277 C 
ENDBRANCH  21  24
ENDBRANCH  15  16
ENDBRANCH   1  15
TORSDOF 5
