REMARK  Name = 
REMARK  4 active torsions:
REMARK  status: ('A' for Active; 'I' for Inactive)
REMARK    1  A    between atoms: C_1  and  N_2
REMARK    2  A    between atoms: C_13  and  C_14
REMARK    3  A    between atoms: C_14  and  N_15
REMARK    4  A    between atoms: C_19  and  C_20
REMARK                            x       y       z     vdW  Elec       q    Type
REMARK                         _______ _______ _______ _____ _____    ______ ____
ROOT
ATOM      1  C   UNL     1       3.124   2.418   0.555  0.00  0.00    +0.149 C 
ATOM      2  N   UNL     1       2.611   1.062   0.363  0.00  0.00    -0.346 N 
ATOM      3  C   UNL     1       1.329   0.644   0.513  0.00  0.00    +0.030 A 
ATOM      4  C   UNL     1       1.228  -0.716   0.285  0.00  0.00    +0.046 A 
ATOM      5  C   UNL     1       2.510  -1.160   0.026  0.00  0.00    +0.011 A 
ATOM      6  C   UNL     1       3.011  -2.432  -0.249  0.00  0.00    +0.011 A 
ATOM      7  C   UNL     1       4.396  -2.561  -0.459  0.00  0.00    +0.001 A 
ATOM      8  C   UNL     1       5.239  -1.432  -0.387  0.00  0.00    +0.002 A 
ATOM      9  C   UNL     1       4.708  -0.159  -0.110  0.00  0.00    +0.026 A 
ATOM     10  C   UNL     1       3.328  -0.052   0.089  0.00  0.00    +0.050 A 
ATOM     11  C   UNL     1      -0.050  -1.434   0.352  0.00  0.00    +0.170 C 
ATOM     12  O   UNL     1      -0.103  -2.684   0.207  0.00  0.00    -0.292 OA
ATOM     13  C   UNL     1      -1.315  -0.629   0.540  0.00  0.00    +0.080 C 
ATOM     14  C   UNL     1      -1.026   0.650   1.378  0.00  0.00    +0.019 C 
ATOM     15  C   UNL     1       0.136   1.506   0.823  0.00  0.00    +0.055 C 
ENDROOT
BRANCH  13  16
ATOM     16  C   UNL     1      -1.931  -0.312  -0.839  0.00  0.00    +0.134 C 
BRANCH  16  17
ATOM     17  N   UNL     1      -3.209   0.394  -0.712  0.00  0.00    -0.334 N 
ATOM     18  C   UNL     1      -3.402   1.714  -0.874  0.00  0.00    +0.107 A 
ATOM     19  C   UNL     1      -4.730   1.986  -0.638  0.00  0.00    +0.130 A 
ATOM     20  N   UNL     1      -5.378   0.844  -0.329  0.00  0.00    -0.241 NA
ATOM     21  C   UNL     1      -4.423  -0.109  -0.392  0.00  0.00    +0.107 A 
ATOM     22  C   UNL     1      -4.698  -1.546  -0.075  0.00  0.00    +0.086 C 
ENDBRANCH  16  17
ENDBRANCH  13  16
TORSDOF 2
