REMARK  Name = 
REMARK  9 active torsions:
REMARK  status: ('A' for Active; 'I' for Inactive)
REMARK    1  A    between atoms: C_1  and  C_2
REMARK    2  A    between atoms: C_2  and  C_3
REMARK    3  A    between atoms: C_2  and  N_4
REMARK    4  A    between atoms: N_4  and  C_5
REMARK    5  A    between atoms: C_5  and  C_6
REMARK    6  A    between atoms: C_6  and  O_7
REMARK    7  A    between atoms: C_6  and  C_8
REMARK    8  A    between atoms: C_10  and  O_11
REMARK    9  A    between atoms: C_13  and  O_14
REMARK                            x       y       z     vdW  Elec       q    Type
REMARK                         _______ _______ _______ _____ _____    ______ ____
ROOT
ATOM      1  C   UNL     1       1.483  -0.478   0.604  0.00  0.00    -0.011 A 
ATOM      2  C   UNL     1       1.919   0.327   1.671  0.00  0.00    +0.051 A 
ATOM      3  C   UNL     1       2.633   1.507   1.425  0.00  0.00    +0.121 A 
ATOM      4  C   UNL     1       2.906   1.894   0.109  0.00  0.00    +0.090 A 
ATOM      5  C   UNL     1       2.463   1.112  -0.962  0.00  0.00    +0.121 A 
ATOM      6  C   UNL     1       1.750  -0.069  -0.715  0.00  0.00    +0.051 A 
ENDROOT
BRANCH   3   7
ATOM      7  O   UNL     1       3.073   2.304   2.479  0.00  0.00    -0.507 OA
ATOM      8  H   UNL     1       2.891   2.053   3.444  0.00  0.00    +0.292 HD
ENDBRANCH   3   7
BRANCH   5   9
ATOM      9  O   UNL     1       2.734   1.519  -2.266  0.00  0.00    -0.507 OA
ATOM     10  H   UNL     1       2.426   0.976  -3.065  0.00  0.00    +0.292 HD
ENDBRANCH   5   9
BRANCH   1  11
ATOM     11  C   UNL     1       0.663  -1.720   0.884  0.00  0.00    +0.158 C 
BRANCH  11  12
ATOM     12  O   UNL     1       0.970  -2.725  -0.049  0.00  0.00    -0.386 OA
ATOM     13  H   UNL     1       0.595  -3.573   0.307  0.00  0.00    +0.210 HD
ENDBRANCH  11  12
BRANCH  11  14
ATOM     14  C   UNL     1      -0.839  -1.393   0.857  0.00  0.00    +0.117 C 
BRANCH  14  15
ATOM     15  N   UNL     1      -1.252  -0.965  -0.490  0.00  0.00    -0.311 NA
ATOM     16  H   UNL     1      -1.368  -1.833  -1.064  0.00  0.00    +0.122 HD
BRANCH  15  18
ATOM     17  C   UNL     1      -2.236   1.273  -0.197  0.00  0.00    +0.023 C 
ATOM     18  C   UNL     1      -2.521  -0.212  -0.462  0.00  0.00    +0.048 C 
ATOM     19  C   UNL     1      -3.261  -0.357  -1.800  0.00  0.00    +0.023 C 
ENDBRANCH  15  18
ENDBRANCH  14  15
ENDBRANCH  11  14
ENDBRANCH   1  11
TORSDOF 7
