REMARK  Name = 
REMARK  27 active torsions:
REMARK  status: ('A' for Active; 'I' for Inactive)
REMARK    1  A    between atoms: C_1  and  C_2
REMARK    2  A    between atoms: C_2  and  C_3
REMARK    3  A    between atoms: C_3  and  C_4
REMARK    4  A    between atoms: C_4  and  C_5
REMARK    5  A    between atoms: C_5  and  C_6
REMARK    6  A    between atoms: C_6  and  C_7
REMARK    7  A    between atoms: C_7  and  C_8
REMARK    8  A    between atoms: C_8  and  C_9
REMARK    9  A    between atoms: C_9  and  C_10
REMARK   10  A    between atoms: C_10  and  C_11
REMARK   11  A    between atoms: C_11  and  C_12
REMARK   12  A    between atoms: C_12  and  C_13
REMARK   13  A    between atoms: C_12  and  O_25
REMARK   14  A    between atoms: C_13  and  C_14
REMARK   15  A    between atoms: C_18  and  C_19
REMARK   16  A    between atoms: C_19  and  C_20
REMARK   17  A    between atoms: C_20  and  C_21
REMARK   18  A    between atoms: C_21  and  C_22
REMARK   19  A    between atoms: C_22  and  C_23
REMARK   20  A    between atoms: C_23  and  C_24
REMARK   21  A    between atoms: O_25  and  C_26
REMARK   22  A    between atoms: C_26  and  C_28
REMARK   23  A    between atoms: C_28  and  C_29
REMARK   24  A    between atoms: C_28  and  N_33
REMARK   25  A    between atoms: C_29  and  C_30
REMARK   26  A    between atoms: C_30  and  C_31
REMARK   27  A    between atoms: C_30  and  C_32
REMARK                            x       y       z     vdW  Elec       q    Type
REMARK                         _______ _______ _______ _____ _____    ______ ____
ROOT
ATOM      1  C   UNL     1      -1.627  -0.849   1.282  0.00  0.00    +0.180 C 
ENDROOT
BRANCH   1   2
ATOM      2  C   UNL     1      -0.657  -0.063   2.197  0.00  0.00    +0.045 C 
BRANCH   2   3
ATOM      3  C   UNL     1       0.145   1.077   1.531  0.00  0.00    +0.004 C 
BRANCH   3   4
ATOM      4  C   UNL     1       0.991   0.680   0.305  0.00  0.00    +0.000 C 
BRANCH   4   5
ATOM      5  C   UNL     1       2.046  -0.408   0.568  0.00  0.00    +0.000 C 
BRANCH   5   6
ATOM      6  C   UNL     1       3.239   0.104   1.387  0.00  0.00    +0.000 C 
BRANCH   6   7
ATOM      7  C   UNL     1       4.256  -1.007   1.711  0.00  0.00    -0.000 C 
BRANCH   7   8
ATOM      8  C   UNL     1       4.868  -1.717   0.485  0.00  0.00    -0.000 C 
BRANCH   8   9
ATOM      9  C   UNL     1       5.550  -0.786  -0.534  0.00  0.00    -0.000 C 
BRANCH   9  10
ATOM     10  C   UNL     1       6.767  -0.056   0.052  0.00  0.00    -0.000 C 
BRANCH  10  12
ATOM     11  C   UNL     1       8.709   1.474  -0.451  0.00  0.00    +0.004 C 
ATOM     12  C   UNL     1       7.503   0.740  -1.031  0.00  0.00    -0.003 C 
ENDBRANCH  10  12
ENDBRANCH   9  10
ENDBRANCH   8   9
ENDBRANCH   7   8
ENDBRANCH   6   7
ENDBRANCH   5   6
ENDBRANCH   4   5
ENDBRANCH   3   4
ENDBRANCH   2   3
ENDBRANCH   1   2
BRANCH   1  13
ATOM     13  C   UNL     1      -2.593   0.037   0.465  0.00  0.00    +0.090 C 
BRANCH  13  14
ATOM     14  C   UNL     1      -3.555   0.850   1.355  0.00  0.00    +0.194 C 
ATOM     15  O   UNL     1      -4.448  -0.004   2.053  0.00  0.00    -0.460 OA
ATOM     16  C   UNL     1      -5.569   0.599   1.361  0.00  0.00    +0.314 C 
ATOM     17  O   UNL     1      -6.815   0.423   1.369  0.00  0.00    -0.250 OA
ATOM     18  C   UNL     1      -4.627   1.496   0.625  0.00  0.00    +0.138 C 
BRANCH  18  19
ATOM     19  C   UNL     1      -4.814   2.986   0.981  0.00  0.00    +0.018 C 
BRANCH  19  20
ATOM     20  C   UNL     1      -6.047   3.618   0.308  0.00  0.00    +0.001 C 
BRANCH  20  21
ATOM     21  C   UNL     1      -5.948   3.768  -1.225  0.00  0.00    +0.000 C 
BRANCH  21  22
ATOM     22  C   UNL     1      -4.791   4.655  -1.724  0.00  0.00    -0.000 C 
BRANCH  22  23
ATOM     23  C   UNL     1      -4.867   6.092  -1.182  0.00  0.00    -0.003 C 
ATOM     24  C   UNL     1      -3.821   6.992  -1.836  0.00  0.00    +0.004 C 
ENDBRANCH  22  23
ENDBRANCH  21  22
ENDBRANCH  20  21
ENDBRANCH  19  20
ENDBRANCH  18  19
ENDBRANCH  13  14
ENDBRANCH   1  13
BRANCH   1  25
ATOM     25  O   UNL     1      -0.870  -1.687   0.408  0.00  0.00    -0.460 OA
BRANCH  25  26
ATOM     26  C   UNL     1      -1.378  -2.839  -0.204  0.00  0.00    +0.328 C 
ATOM     27  O   UNL     1      -2.563  -3.214   0.011  0.00  0.00    -0.249 OA
BRANCH  26  28
ATOM     28  C   UNL     1      -0.490  -3.650  -1.105  0.00  0.00    +0.182 C 
BRANCH  28  29
ATOM     29  N   UNL     1      -0.015  -2.803  -2.203  0.00  0.00    -0.305 N 
ATOM     30  C   UNL     1      -0.875  -2.368  -3.263  0.00  0.00    +0.326 C 
ATOM     31  O   UNL     1      -2.094  -2.686  -3.279  0.00  0.00    -0.280 OA
ATOM     32  H   UNL     1       0.988  -2.512  -2.244  0.00  0.00    +0.149 HD
ENDBRANCH  28  29
BRANCH  28  33
ATOM     33  C   UNL     1       0.713  -4.233  -0.328  0.00  0.00    +0.036 C 
BRANCH  33  34
ATOM     34  C   UNL     1       0.335  -5.091   0.905  0.00  0.00    -0.015 C 
ATOM     35  C   UNL     1      -0.448  -6.354   0.514  0.00  0.00    +0.007 C 
ATOM     36  C   UNL     1       1.605  -5.481   1.677  0.00  0.00    +0.007 C 
ENDBRANCH  33  34
ENDBRANCH  28  33
ENDBRANCH  26  28
ENDBRANCH  25  26
ENDBRANCH   1  25
TORSDOF 23
