REMARK  Name = 
REMARK  9 active torsions:
REMARK  status: ('A' for Active; 'I' for Inactive)
REMARK    1  A    between atoms: C_1  and  N_2
REMARK    2  A    between atoms: N_2  and  C_3
REMARK    3  A    between atoms: N_2  and  C_4
REMARK    4  A    between atoms: C_4  and  C_5
REMARK    5  A    between atoms: C_5  and  O_6
REMARK    6  A    between atoms: O_6  and  C_7
REMARK    7  A    between atoms: C_7  and  C_8
REMARK    8  A    between atoms: C_7  and  C_14
REMARK    9  A    between atoms: C_19  and  C_20
REMARK                            x       y       z     vdW  Elec       q    Type
REMARK                         _______ _______ _______ _____ _____    ______ ____
ROOT
ATOM      1  C   UNL     1      -0.469  -0.037  -0.025  0.00  0.00    +0.179 C 
ENDROOT
BRANCH   1   2
ATOM      2  C   UNL     1      -1.229  -1.297   0.370  0.00  0.00    -0.012 A 
ATOM      3  C   UNL     1      -1.164  -2.410  -0.494  0.00  0.00    +0.007 A 
ATOM      4  C   UNL     1      -1.839  -3.593  -0.192  0.00  0.00    +0.000 A 
ATOM      5  C   UNL     1      -2.591  -3.690   0.975  0.00  0.00    +0.000 A 
ATOM      6  C   UNL     1      -2.667  -2.607   1.849  0.00  0.00    +0.004 A 
ATOM      7  C   UNL     1      -1.983  -1.409   1.575  0.00  0.00    -0.044 A 
ATOM      8  C   UNL     1      -2.134  -0.269   2.549  0.00  0.00    +0.044 C 
ENDBRANCH   1   2
BRANCH   1   9
ATOM      9  C   UNL     1      -1.416   1.137  -0.210  0.00  0.00    -0.014 A 
ATOM     10  C   UNL     1      -2.397   1.073  -1.218  0.00  0.00    +0.006 A 
ATOM     11  C   UNL     1      -3.281   2.137  -1.418  0.00  0.00    +0.000 A 
ATOM     12  C   UNL     1      -3.193   3.280  -0.621  0.00  0.00    +0.000 A 
ATOM     13  C   UNL     1      -2.220   3.362   0.378  0.00  0.00    +0.000 A 
ATOM     14  C   UNL     1      -1.333   2.301   0.583  0.00  0.00    +0.006 A 
ENDBRANCH   1   9
BRANCH   1  15
ATOM     15  O   UNL     1       0.527   0.220   0.956  0.00  0.00    -0.366 OA
BRANCH  15  16
ATOM     16  C   UNL     1       1.678   0.827   0.395  0.00  0.00    +0.176 C 
BRANCH  16  17
ATOM     17  C   UNL     1       2.716  -0.243   0.033  0.00  0.00    +0.112 C 
BRANCH  17  19
ATOM     18  C   UNL     1       4.542  -0.670  -1.497  0.00  0.00    +0.104 C 
ATOM     19  N   UNL     1       3.857   0.356  -0.695  0.00  0.00    -0.306 NA
ATOM     20  C   UNL     1       4.820   0.968   0.239  0.00  0.00    +0.104 C 
ENDBRANCH  17  19
ENDBRANCH  16  17
ENDBRANCH  15  16
ENDBRANCH   1  15
TORSDOF 6
