REMARK  Name = 
REMARK  9 active torsions:
REMARK  status: ('A' for Active; 'I' for Inactive)
REMARK    1  A    between atoms: O_1  and  C_2
REMARK    2  A    between atoms: C_2  and  C_3
REMARK    3  A    between atoms: C_3  and  O_4
REMARK    4  A    between atoms: O_4  and  C_5
REMARK    5  A    between atoms: C_8  and  C_11
REMARK    6  A    between atoms: C_11  and  C_22
REMARK    7  A    between atoms: C_12  and  C_13
REMARK    8  A    between atoms: C_12  and  C_16
REMARK    9  A    between atoms: C_13  and  C_14
REMARK                            x       y       z     vdW  Elec       q    Type
REMARK                         _______ _______ _______ _____ _____    ______ ____
ROOT
ATOM      1  C   UNL     1      -0.648  -1.143   0.229  0.00  0.00    -0.007 C 
ATOM      2  C   UNL     1      -1.322  -1.370  -0.930  0.00  0.00    -0.031 C 
ENDROOT
BRANCH   1   6
ATOM      3  C   UNL     1       1.273   2.640   0.868  0.00  0.00    +0.121 A 
ATOM      4  C   UNL     1       1.978   1.577   0.269  0.00  0.00    +0.046 A 
ATOM      5  C   UNL     1       1.353   0.344   0.068  0.00  0.00    +0.012 A 
ATOM      6  C   UNL     1       0.024   0.152   0.470  0.00  0.00    -0.017 A 
ATOM      7  C   UNL     1      -0.677   1.205   1.068  0.00  0.00    +0.012 A 
ATOM      8  C   UNL     1      -0.057   2.442   1.258  0.00  0.00    +0.046 A 
BRANCH   3   9
ATOM      9  O   UNL     1       1.845   3.906   1.080  0.00  0.00    -0.490 OA
BRANCH   9  10
ATOM     10  C   UNL     1       3.224   4.236   0.903  0.00  0.00    +0.256 C 
BRANCH  10  11
ATOM     11  C   UNL     1       4.065   3.662   2.045  0.00  0.00    +0.196 C 
BRANCH  11  12
ATOM     12  O   UNL     1       5.409   4.030   1.892  0.00  0.00    -0.392 OA
ATOM     13  H   UNL     1       5.780   3.452   1.177  0.00  0.00    +0.210 HD
ENDBRANCH  11  12
ENDBRANCH  10  11
ENDBRANCH   9  10
ENDBRANCH   3   9
ENDBRANCH   1   6
BRANCH   2  14
ATOM     14  C   UNL     1      -1.497  -0.264  -1.901  0.00  0.00    -0.021 A 
ATOM     15  C   UNL     1      -2.660   0.521  -1.864  0.00  0.00    +0.008 A 
ATOM     16  C   UNL     1      -2.816   1.583  -2.759  0.00  0.00    +0.001 A 
ATOM     17  C   UNL     1      -1.815   1.865  -3.693  0.00  0.00    +0.000 A 
ATOM     18  C   UNL     1      -0.657   1.082  -3.737  0.00  0.00    +0.001 A 
ATOM     19  C   UNL     1      -0.497   0.019  -2.843  0.00  0.00    +0.008 A 
ENDBRANCH   2  14
BRANCH   1  20
ATOM     20  C   UNL     1      -0.594  -2.137   1.325  0.00  0.00    -0.017 A 
ATOM     21  C   UNL     1      -1.773  -2.554   1.966  0.00  0.00    +0.008 A 
ATOM     22  C   UNL     1      -1.715  -3.480   3.012  0.00  0.00    +0.001 A 
ATOM     23  C   UNL     1      -0.482  -3.987   3.433  0.00  0.00    +0.000 A 
ATOM     24  C   UNL     1       0.696  -3.564   2.811  0.00  0.00    +0.001 A 
ATOM     25  C   UNL     1       0.643  -2.639   1.763  0.00  0.00    +0.008 A 
ENDBRANCH   1  20
BRANCH   2  26
ATOM     26  C   UNL     1      -2.027  -2.689  -1.206  0.00  0.00    +0.052 C 
BRANCH  26  27
ATOM     27  C   UNL     1      -2.042  -3.057  -2.693  0.00  0.00    +0.113 C 
ATOM     28 CL   UNL     1      -2.772  -4.665  -2.920  0.00  0.00    -0.125 Cl
ENDBRANCH  26  27
ENDBRANCH   2  26
TORSDOF 9
