REMARK  Name = 
REMARK  14 active torsions:
REMARK  status: ('A' for Active; 'I' for Inactive)
REMARK    1  A    between atoms: C_4  and  O_5
REMARK    2  A    between atoms: C_7  and  O_31
REMARK    3  A    between atoms: C_9  and  O_10
REMARK    4  A    between atoms: C_11  and  C_12
REMARK    5  A    between atoms: C_12  and  O_13
REMARK    6  A    between atoms: C_15  and  O_16
REMARK    7  A    between atoms: C_18  and  C_19
REMARK    8  A    between atoms: C_20  and  C_25
REMARK    9  A    between atoms: C_23  and  O_24
REMARK   10  A    between atoms: O_31  and  C_32
REMARK   11  A    between atoms: C_34  and  C_35
REMARK   12  A    between atoms: C_36  and  O_37
REMARK   13  A    between atoms: C_38  and  O_39
REMARK   14  A    between atoms: C_40  and  O_41
REMARK                            x       y       z     vdW  Elec       q    Type
REMARK                         _______ _______ _______ _____ _____    ______ ____
ROOT
ATOM      1  C   UNL     1       2.067   0.296  -0.603  0.00  0.00    +0.028 C 
ATOM      2  C   UNL     1       1.091   1.129  -1.484  0.00  0.00    +0.009 C 
ATOM      3  C   UNL     1      -0.394   0.819  -1.261  0.00  0.00    +0.036 C 
ATOM      4  C   UNL     1      -0.625  -0.573  -0.637  0.00  0.00    +0.079 C 
ATOM      5  C   UNL     1      -2.158  -0.875  -0.632  0.00  0.00    +0.067 C 
ATOM      6  C   UNL     1      -2.956  -0.097   0.411  0.00  0.00    +0.127 C 
ATOM      7  C   UNL     1      -2.358  -0.327   1.792  0.00  0.00    +0.063 C 
ATOM      8  C   UNL     1      -0.890   0.148   1.845  0.00  0.00    +0.128 C 
ATOM      9  C   UNL     1       0.050  -0.626   0.830  0.00  0.00    +0.054 C 
ATOM     10  C   UNL     1       1.498   0.114   0.838  0.00  0.00    +0.037 C 
ATOM     11  C   UNL     1       2.564  -0.533   1.777  0.00  0.00    +0.119 C 
ATOM     12  C   UNL     1       3.917   0.174   1.696  0.00  0.00    +0.041 C 
ATOM     13  C   UNL     1       4.539   0.219   0.272  0.00  0.00    +0.006 C 
ATOM     14  C   UNL     1       4.978  -1.210  -0.135  0.00  0.00    +0.015 C 
ATOM     15  C   UNL     1       5.726   1.238   0.330  0.00  0.00    +0.027 C 
ATOM     16  C   UNL     1       5.129   2.603  -0.052  0.00  0.00    +0.011 C 
ATOM     17  C   UNL     1       3.664   2.366  -0.422  0.00  0.00    +0.036 C 
ATOM     18  C   UNL     1       3.531   0.862  -0.724  0.00  0.00    +0.075 C 
ENDROOT
BRANCH  15  19
ATOM     19  C   UNL     1       6.954   0.885  -0.492  0.00  0.00    -0.022 C 
ATOM     20  C   UNL     1       7.060   0.933  -1.818  0.00  0.00    +0.094 C 
ATOM     21  C   UNL     1       8.395   0.501  -2.147  0.00  0.00    +0.332 C 
ATOM     22  O   UNL     1       8.865   0.422  -3.311  0.00  0.00    -0.246 OA
ATOM     23  O   UNL     1       9.110   0.229  -0.996  0.00  0.00    -0.457 OA
ATOM     24  C   UNL     1       8.252   0.420   0.126  0.00  0.00    +0.264 C 
ENDBRANCH  15  19
BRANCH   4  25
ATOM     25  O   UNL     1      -0.033  -1.495  -1.532  0.00  0.00    -0.388 OA
ATOM     26  H   UNL     1      -0.239  -2.421  -1.254  0.00  0.00    +0.210 HD
ENDBRANCH   4  25
BRANCH   8  27
ATOM     27  O   UNL     1      -0.376   0.117   3.159  0.00  0.00    -0.391 OA
ATOM     28  H   UNL     1      -1.017  -0.324   3.775  0.00  0.00    +0.210 HD
ENDBRANCH   8  27
BRANCH  11  29
ATOM     29  O   UNL     1       2.139  -0.451   3.110  0.00  0.00    -0.391 OA
ATOM     30  H   UNL     1       2.658  -1.126   3.624  0.00  0.00    +0.210 HD
ENDBRANCH  11  29
BRANCH  18  31
ATOM     31  O   UNL     1       3.972   0.688  -2.055  0.00  0.00    -0.388 OA
ATOM     32  H   UNL     1       3.822  -0.254  -2.335  0.00  0.00    +0.210 HD
ENDBRANCH  18  31
BRANCH   9  33
ATOM     33  C   UNL     1       0.146  -2.145   1.240  0.00  0.00    +0.168 C 
BRANCH  33  34
ATOM     34  O   UNL     1       0.395  -2.333   2.603  0.00  0.00    -0.394 OA
ATOM     35  H   UNL     1       0.424  -3.313   2.753  0.00  0.00    +0.209 HD
ENDBRANCH  33  34
ENDBRANCH   9  33
BRANCH   6  36
ATOM     36  O   UNL     1      -4.287  -0.583   0.422  0.00  0.00    -0.345 OA
BRANCH  36  37
ATOM     37  C   UNL     1      -5.197   0.237  -0.298  0.00  0.00    +0.282 C 
ATOM     38  O   UNL     1      -6.173   0.744   0.607  0.00  0.00    -0.343 OA
ATOM     39  C   UNL     1      -7.136  -0.247   0.922  0.00  0.00    +0.149 C 
ATOM     40  C   UNL     1      -7.941   0.225   2.132  0.00  0.00    +0.041 C 
ATOM     41  C   UNL     1      -8.061  -0.508  -0.301  0.00  0.00    +0.174 C 
ATOM     42  C   UNL     1      -7.313  -0.232  -1.626  0.00  0.00    +0.179 C 
ATOM     43  C   UNL     1      -5.819  -0.573  -1.471  0.00  0.00    +0.201 C 
BRANCH  41  44
ATOM     44  O   UNL     1      -8.508  -1.838  -0.291  0.00  0.00    -0.387 OA
ATOM     45  H   UNL     1      -9.144  -1.921   0.468  0.00  0.00    +0.210 HD
ENDBRANCH  41  44
BRANCH  42  46
ATOM     46  O   UNL     1      -7.467   1.123  -1.978  0.00  0.00    -0.386 OA
ATOM     47  H   UNL     1      -7.314   1.184  -2.959  0.00  0.00    +0.210 HD
ENDBRANCH  42  46
BRANCH  43  48
ATOM     48  O   UNL     1      -5.125  -0.300  -2.664  0.00  0.00    -0.384 OA
ATOM     49  H   UNL     1      -5.386  -0.998  -3.319  0.00  0.00    +0.210 HD
ENDBRANCH  43  48
ENDBRANCH  36  37
ENDBRANCH   6  36
TORSDOF 12
