REMARK  Name = 
REMARK  0 active torsions:
REMARK  status: ('A' for Active; 'I' for Inactive)
REMARK                            x       y       z     vdW  Elec       q    Type
REMARK                         _______ _______ _______ _____ _____    ______ ____
ROOT
ATOM      1  O   UNL     1       1.067  -0.019   0.071  0.00  0.00    +0.000 OA
ATOM      2  C   UNL     1       2.338  -0.019   0.071  0.00  0.00    +0.000 C 
ATOM      3  O   UNL     1       3.048   0.866   0.925  0.00  0.00    +0.000 OA
ATOM      4 PT   UNL     1       5.068   0.866   0.925  0.00  0.00    +0.000 Pt
ATOM      5  N   UNL     1       5.499   0.573  -0.332  0.00  0.00    +0.000 NA
ATOM      6  C   UNL     1       6.039   1.853  -0.890  0.00  0.00    +0.000 C 
ATOM      7  C   UNL     1       7.215   1.824  -1.842  0.00  0.00    +0.000 C 
ATOM      8  C   UNL     1       7.529   3.294  -2.184  0.00  0.00    +0.000 C 
ATOM      9  C   UNL     1       7.825   4.116  -0.935  0.00  0.00    +0.000 C 
ATOM     10  C   UNL     1       6.726   3.989   0.115  0.00  0.00    +0.000 C 
ATOM     11  C   UNL     1       6.559   2.519   0.420  0.00  0.00    +0.000 C 
ATOM     12  N   UNL     1       5.500   2.076   1.377  0.00  0.00    +0.000 NA
ATOM     13  O   UNL     1       5.832  -0.538   2.160  0.00  0.00    +0.000 OA
ATOM     14  C   UNL     1       3.098  -0.967  -0.842  0.00  0.00    +0.000 C 
ATOM     15  O   UNL     1       2.463  -1.759  -1.606  0.00  0.00    +0.000 OA
ATOM     16  H   UNL     1       4.724   0.236  -0.903  0.00  0.00    +0.000 HD
ATOM     17  H   UNL     1       4.730   2.745   1.388  0.00  0.00    +0.000 HD
ENDROOT
TORSDOF 0
