REMARK  Name = 
REMARK  8 active torsions:
REMARK  status: ('A' for Active; 'I' for Inactive)
REMARK    1  A    between atoms: C_1  and  C_2
REMARK    2  A    between atoms: C_2  and  C_3
REMARK    3  A    between atoms: C_2  and  N_4
REMARK    4  A    between atoms: N_4  and  C_5
REMARK    5  A    between atoms: C_5  and  C_6
REMARK    6  A    between atoms: C_11  and  C_12
REMARK    7  A    between atoms: C_12  and  O_13
REMARK    8  A    between atoms: C_14  and  N_18
REMARK                            x       y       z     vdW  Elec       q    Type
REMARK                         _______ _______ _______ _____ _____    ______ ____
ROOT
ATOM      1  C   UNL     1       0.995   1.153  -0.913  0.00  0.00    +0.084 C 
ATOM      2  C   UNL     1       0.535   2.031   0.264  0.00  0.00    +0.028 C 
ATOM      3  C   UNL     1      -0.957   2.356   0.131  0.00  0.00    +0.039 C 
ATOM      4  C   UNL     1      -1.783   1.106  -0.047  0.00  0.00    -0.026 A 
ATOM      5  C   UNL     1      -3.139   1.109   0.301  0.00  0.00    +0.013 A 
ATOM      6  C   UNL     1      -3.940  -0.031   0.109  0.00  0.00    +0.008 A 
ATOM      7  C   UNL     1      -3.365  -1.193  -0.472  0.00  0.00    +0.133 A 
ATOM      8  C   UNL     1      -2.004  -1.184  -0.819  0.00  0.00    +0.056 A 
ATOM      9  C   UNL     1      -1.217  -0.044  -0.625  0.00  0.00    +0.033 A 
ATOM     10  N   UNL     1       0.173  -0.059  -0.991  0.00  0.00    -0.339 N 
ATOM     11  H   UNL     1       0.577  -0.922  -1.421  0.00  0.00    +0.146 HD
ENDROOT
BRANCH   7  12
ATOM     12  N   UNL     1      -4.129  -2.392  -0.701  0.00  0.00    +0.057 N 
ATOM     13  O   UNL     1      -3.508  -3.619  -0.663  0.00  0.00    -0.126 OA
ATOM     14  O   UNL     1      -5.310  -2.332  -1.100  0.00  0.00    -0.126 OA
ENDBRANCH   7  12
BRANCH   1  15
ATOM     15  C   UNL     1       2.489   0.794  -0.817  0.00  0.00    +0.103 C 
BRANCH  15  16
ATOM     16  N   UNL     1       2.743  -0.101   0.324  0.00  0.00    -0.312 NA
ATOM     17  H   UNL     1       2.804   0.473   1.198  0.00  0.00    +0.122 HD
BRANCH  16  19
ATOM     18  C   UNL     1       4.003  -2.003   1.204  0.00  0.00    +0.023 C 
ATOM     19  C   UNL     1       3.986  -0.877   0.169  0.00  0.00    +0.048 C 
ATOM     20  C   UNL     1       5.237   0.006   0.324  0.00  0.00    +0.023 C 
ENDBRANCH  16  19
ENDBRANCH  15  16
ENDBRANCH   1  15
BRANCH   6  21
ATOM     21  C   UNL     1      -5.380   0.014   0.568  0.00  0.00    +0.193 C 
BRANCH  21  22
ATOM     22  O   UNL     1      -5.633  -1.004   1.498  0.00  0.00    -0.390 OA
ATOM     23  H   UNL     1      -5.182  -0.736   2.341  0.00  0.00    +0.210 HD
ENDBRANCH  21  22
ENDBRANCH   6  21
TORSDOF 6
