REMARK  Name = 
REMARK  4 active torsions:
REMARK  status: ('A' for Active; 'I' for Inactive)
REMARK    1  A    between atoms: C_4  and  C_5
REMARK    2  A    between atoms: C_4  and  O_6
REMARK    3  A    between atoms: C_7  and  C_8
REMARK    4  A    between atoms: C_21  and  C_22
REMARK                            x       y       z     vdW  Elec       q    Type
REMARK                         _______ _______ _______ _____ _____    ______ ____
ROOT
ATOM      1  C   UNL     1      -1.372   0.823  -0.300  0.00  0.00    +0.001 C 
ATOM      2  C   UNL     1      -2.196   2.048   0.072  0.00  0.00    +0.007 C 
ATOM      3  C   UNL     1      -3.658   1.603  -0.110  0.00  0.00    +0.035 C 
ATOM      4  C   UNL     1      -3.655   0.061  -0.347  0.00  0.00    +0.069 C 
ATOM      5  C   UNL     1      -3.927  -0.253  -1.841  0.00  0.00    +0.042 C 
ATOM      6  C   UNL     1      -2.230  -0.373   0.141  0.00  0.00    -0.000 C 
ATOM      7  C   UNL     1      -2.269  -0.554   1.698  0.00  0.00    +0.014 C 
ATOM      8  C   UNL     1      -1.625  -1.648  -0.504  0.00  0.00    +0.010 C 
ATOM      9  C   UNL     1      -0.143  -1.838  -0.099  0.00  0.00    +0.005 C 
ATOM     10  C   UNL     1       0.732  -0.574  -0.378  0.00  0.00    +0.002 C 
ATOM     11  C   UNL     1       0.089   0.737   0.195  0.00  0.00    -0.004 C 
ATOM     12  C   UNL     1       0.895   1.968  -0.263  0.00  0.00    +0.004 C 
ATOM     13  C   UNL     1       2.364   1.858   0.153  0.00  0.00    +0.005 C 
ATOM     14  C   UNL     1       3.002   0.573  -0.407  0.00  0.00    +0.009 C 
ATOM     15  C   UNL     1       4.508   0.531  -0.089  0.00  0.00    +0.124 C 
ATOM     16  C   UNL     1       5.108  -0.799  -0.433  0.00  0.00    +0.307 C 
ATOM     17  O   UNL     1       6.358  -0.906  -0.538  0.00  0.00    -0.251 OA
ATOM     18  O   UNL     1       4.315  -1.946  -0.530  0.00  0.00    -0.464 OA
ATOM     19  C   UNL     1       2.899  -1.907  -0.714  0.00  0.00    +0.239 C 
ATOM     20  C   UNL     1       2.244  -0.722   0.046  0.00  0.00    +0.009 C 
ATOM     21  C   UNL     1       2.391  -0.976   1.575  0.00  0.00    +0.015 C 
ENDROOT
BRANCH   4  22
ATOM     22  O   UNL     1      -4.659  -0.563   0.423  0.00  0.00    -0.388 OA
ATOM     23  H   UNL     1      -5.528  -0.145   0.185  0.00  0.00    +0.210 HD
ENDBRANCH   4  22
TORSDOF 1
