REMARK  Name = 
REMARK  6 active torsions:
REMARK  status: ('A' for Active; 'I' for Inactive)
REMARK    1  A    between atoms: O_1  and  C_2
REMARK    2  A    between atoms: C_2  and  C_4
REMARK    3  A    between atoms: C_4  and  C_5
REMARK    4  A    between atoms: C_5  and  C_6
REMARK    5  A    between atoms: C_8  and  C_17
REMARK    6  A    between atoms: C_9  and  C_11
REMARK                            x       y       z     vdW  Elec       q    Type
REMARK                         _______ _______ _______ _____ _____    ______ ____
ROOT
ATOM      1  C   UNL     1       1.831  -0.013   0.888  0.00  0.00    +0.197 A 
ATOM      2  N   UNL     1       1.179   1.159   0.724  0.00  0.00    -0.213 NA
ATOM      3  C   UNL     1      -0.048   0.782   0.314  0.00  0.00    +0.117 A 
ATOM      4  C   UNL     1      -0.096  -0.606   0.259  0.00  0.00    +0.163 A 
ATOM      5  O   UNL     1       1.084  -1.057   0.608  0.00  0.00    -0.439 OA
ENDROOT
BRANCH   4   6
ATOM      6  C   UNL     1      -1.233  -1.486  -0.077  0.00  0.00    +0.019 A 
ATOM      7  C   UNL     1      -0.998  -2.695  -0.751  0.00  0.00    +0.011 A 
ATOM      8  C   UNL     1      -2.059  -3.554  -1.056  0.00  0.00    +0.001 A 
ATOM      9  C   UNL     1      -3.361  -3.219  -0.675  0.00  0.00    +0.000 A 
ATOM     10  C   UNL     1      -3.602  -2.030   0.018  0.00  0.00    +0.001 A 
ATOM     11  C   UNL     1      -2.542  -1.170   0.326  0.00  0.00    +0.011 A 
ENDBRANCH   4   6
BRANCH   3  12
ATOM     12  C   UNL     1      -1.089   1.752  -0.085  0.00  0.00    +0.004 A 
ATOM     13  C   UNL     1      -1.881   1.538  -1.227  0.00  0.00    +0.010 A 
ATOM     14  C   UNL     1      -2.844   2.479  -1.604  0.00  0.00    +0.001 A 
ATOM     15  C   UNL     1      -3.010   3.649  -0.858  0.00  0.00    +0.000 A 
ATOM     16  C   UNL     1      -2.213   3.880   0.267  0.00  0.00    +0.001 A 
ATOM     17  C   UNL     1      -1.253   2.938   0.650  0.00  0.00    +0.010 A 
ENDBRANCH   3  12
BRANCH   1  18
ATOM     18  C   UNL     1       3.254  -0.110   1.336  0.00  0.00    +0.107 C 
BRANCH  18  19
ATOM     19  C   UNL     1       4.130  -0.690   0.224  0.00  0.00    +0.130 C 
BRANCH  19  20
ATOM     20  C   UNL     1       5.561  -0.734   0.658  0.00  0.00    +0.305 C 
ATOM     21  O   UNL     1       5.991  -1.721   1.316  0.00  0.00    -0.251 OA
BRANCH  20  22
ATOM     22  O   UNL     1       6.404   0.339   0.376  0.00  0.00    -0.481 OA
ATOM     23  H   UNL     1       7.368   0.335   0.687  0.00  0.00    +0.295 HD
ENDBRANCH  20  22
ENDBRANCH  19  20
ENDBRANCH  18  19
ENDBRANCH   1  18
TORSDOF 6
