REMARK  Name = 
REMARK  2 active torsions:
REMARK  status: ('A' for Active; 'I' for Inactive)
REMARK    1  A    between atoms: O_1  and  C_2
REMARK    2  A    between atoms: C_4  and  C_5
REMARK                            x       y       z     vdW  Elec       q    Type
REMARK                         _______ _______ _______ _____ _____    ______ ____
ROOT
ATOM      1  C   UNL     1       1.418   2.123   1.279  0.00  0.00    +0.320 C 
ATOM      2  N   UNL     1       0.096   1.707   0.820  0.00  0.00    -0.243 NA
ATOM      3  C   UNL     1      -0.196   0.540   0.321  0.00  0.00    +0.078 C 
ATOM      4  C   UNL     1       0.828  -0.543   0.212  0.00  0.00    +0.023 A 
ATOM      5  C   UNL     1       2.135  -0.314  -0.296  0.00  0.00    +0.043 A 
ATOM      6  N   UNL     1       2.596   0.993  -0.677  0.00  0.00    -0.281 N 
ATOM      7  C   UNL     1       2.354   2.169   0.105  0.00  0.00    +0.269 C 
ATOM      8  O   UNL     1       2.933   3.245  -0.203  0.00  0.00    -0.270 OA
ATOM      9  C   UNL     1       3.008  -1.401  -0.465  0.00  0.00    +0.025 A 
ATOM     10  C   UNL     1       2.623  -2.690  -0.097  0.00  0.00    +0.022 A 
ATOM     11  C   UNL     1       1.356  -2.914   0.439  0.00  0.00    +0.042 A 
ATOM     12 CL   UNL     1       0.877  -4.535   0.909  0.00  0.00    -0.084 Cl
ATOM     13  C   UNL     1       0.465  -1.850   0.592  0.00  0.00    +0.032 A 
ATOM     14  H   UNL     1       3.309   1.063  -1.438  0.00  0.00    +0.155 HD
ENDROOT
BRANCH   3  15
ATOM     15  C   UNL     1      -1.596   0.293  -0.113  0.00  0.00    +0.001 A 
ATOM     16  C   UNL     1      -2.665   0.957   0.519  0.00  0.00    +0.010 A 
ATOM     17  C   UNL     1      -3.982   0.734   0.106  0.00  0.00    +0.001 A 
ATOM     18  C   UNL     1      -4.247  -0.146  -0.946  0.00  0.00    +0.000 A 
ATOM     19  C   UNL     1      -3.195  -0.802  -1.589  0.00  0.00    +0.001 A 
ATOM     20  C   UNL     1      -1.877  -0.583  -1.180  0.00  0.00    +0.010 A 
ENDBRANCH   3  15
BRANCH   1  21
ATOM     21  O   UNL     1       1.332   3.374   1.912  0.00  0.00    -0.364 OA
ATOM     22  H   UNL     1       0.856   3.989   1.294  0.00  0.00    +0.212 HD
ENDBRANCH   1  21
TORSDOF 2
