REMARK  Name = 
REMARK  0 active torsions:
REMARK  status: ('A' for Active; 'I' for Inactive)
REMARK                            x       y       z     vdW  Elec       q    Type
REMARK                         _______ _______ _______ _____ _____    ______ ____
ROOT
ATOM      1  N   UNL     1       2.163   2.480   0.426  0.00  0.00    -0.313 N 
ATOM      2  C   UNL     1       0.759   2.281   0.242  0.00  0.00    +0.308 C 
ATOM      3  O   UNL     1      -0.019   3.264   0.374  0.00  0.00    -0.252 OA
ATOM      4  N   UNL     1       0.226   0.971  -0.049  0.00  0.00    -0.224 N 
ATOM      5  C   UNL     1      -1.167   0.710   0.170  0.00  0.00    +0.046 A 
ATOM      6  C   UNL     1      -2.144   1.327  -0.626  0.00  0.00    +0.024 A 
ATOM      7  C   UNL     1      -3.498   1.053  -0.411  0.00  0.00    +0.002 A 
ATOM      8  C   UNL     1      -3.881   0.162   0.595  0.00  0.00    +0.000 A 
ATOM      9  C   UNL     1      -2.911  -0.457   1.390  0.00  0.00    +0.006 A 
ATOM     10  C   UNL     1      -1.550  -0.178   1.184  0.00  0.00    -0.018 A 
ATOM     11  C   UNL     1      -0.486  -0.836   2.010  0.00  0.00    +0.116 C 
ATOM     12  C   UNL     1       0.284  -1.809   1.165  0.00  0.00    +0.169 C 
ATOM     13  O   UNL     1       0.242  -3.027   1.493  0.00  0.00    -0.292 OA
ATOM     14  C   UNL     1       1.085  -1.396  -0.030  0.00  0.00    +0.039 A 
ATOM     15  C   UNL     1       1.912  -2.364  -0.640  0.00  0.00    +0.013 A 
ATOM     16  C   UNL     1       2.688  -2.051  -1.756  0.00  0.00    +0.001 A 
ATOM     17  C   UNL     1       2.654  -0.768  -2.293  0.00  0.00    +0.002 A 
ATOM     18  C   UNL     1       1.846   0.208  -1.714  0.00  0.00    +0.024 A 
ATOM     19  C   UNL     1       1.063  -0.078  -0.581  0.00  0.00    +0.053 A 
ATOM     20  H   UNL     1       2.535   3.439   0.605  0.00  0.00    +0.147 HD
ATOM     21  H   UNL     1       2.829   1.677   0.450  0.00  0.00    +0.147 HD
ENDROOT
TORSDOF 0
