REMARK  Name = 
REMARK  6 active torsions:
REMARK  status: ('A' for Active; 'I' for Inactive)
REMARK    1  A    between atoms: C_6  and  C_7
REMARK    2  A    between atoms: C_7  and  O_8
REMARK    3  A    between atoms: O_8  and  N_9
REMARK    4  A    between atoms: C_10  and  C_11
REMARK    5  A    between atoms: C_10  and  C_17
REMARK    6  A    between atoms: C_11  and  N_12
REMARK                            x       y       z     vdW  Elec       q    Type
REMARK                         _______ _______ _______ _____ _____    ______ ____
ROOT
ATOM      1  N   UNL     1       0.349   0.023  -1.526  0.00  0.00    -0.087 NA
ATOM      2  C   UNL     1      -0.903  -0.298  -1.423  0.00  0.00    +0.108 C 
ENDROOT
BRANCH   2   3
ATOM      3  C   UNL     1      -1.917   0.700  -1.023  0.00  0.00    +0.020 A 
ATOM      4  C   UNL     1      -1.908   1.281   0.263  0.00  0.00    +0.051 A 
ATOM      5 CL   UNL     1      -0.719   0.819   1.478  0.00  0.00    -0.083 Cl
ATOM      6  C   UNL     1      -2.886   2.221   0.608  0.00  0.00    +0.040 A 
ATOM      7  C   UNL     1      -3.876   2.580  -0.312  0.00  0.00    +0.042 A 
ATOM      8 CL   UNL     1      -5.099   3.757   0.129  0.00  0.00    -0.083 Cl
ATOM      9  C   UNL     1      -3.894   1.996  -1.582  0.00  0.00    +0.021 A 
ATOM     10  C   UNL     1      -2.922   1.057  -1.935  0.00  0.00    +0.013 A 
ENDBRANCH   2   3
BRANCH   1  11
ATOM     11  O   UNL     1       0.793   1.316  -1.357  0.00  0.00    -0.389 OA
BRANCH  11  12
ATOM     12  C   UNL     1       2.184   1.600  -1.307  0.00  0.00    +0.299 C 
BRANCH  12  18
ATOM     13 CL   UNL     1       4.315  -0.919   3.789  0.00  0.00    -0.083 Cl
ATOM     14  C   UNL     1       3.731  -0.191   2.304  0.00  0.00    +0.042 A 
ATOM     15  C   UNL     1       3.780  -0.909   1.107  0.00  0.00    +0.040 A 
ATOM     16  C   UNL     1       3.308  -0.338  -0.082  0.00  0.00    +0.049 A 
ATOM     17 CL   UNL     1       3.381  -1.306  -1.552  0.00  0.00    -0.083 Cl
ATOM     18  C   UNL     1       2.786   0.975  -0.074  0.00  0.00    +0.011 A 
ATOM     19  C   UNL     1       2.733   1.682   1.140  0.00  0.00    +0.010 A 
ATOM     20  C   UNL     1       3.208   1.104   2.320  0.00  0.00    +0.020 A 
ENDBRANCH  12  18
ENDBRANCH  11  12
ENDBRANCH   1  11
BRANCH   2  21
ATOM     21  C   UNL     1      -1.294  -1.738  -1.558  0.00  0.00    +0.182 C 
BRANCH  21  22
ATOM     22  N   UNL     1      -1.106  -2.417  -0.279  0.00  0.00    -0.331 N 
ATOM     23  C   UNL     1       0.042  -2.913   0.208  0.00  0.00    +0.107 A 
ATOM     24  C   UNL     1      -0.199  -3.352   1.490  0.00  0.00    +0.130 A 
ATOM     25  N   UNL     1      -1.488  -3.118   1.814  0.00  0.00    -0.244 NA
ATOM     26  C   UNL     1      -2.010  -2.541   0.711  0.00  0.00    +0.199 A 
ENDBRANCH  21  22
ENDBRANCH   2  21
TORSDOF 6
