REMARK  Name = 
REMARK  6 active torsions:
REMARK  status: ('A' for Active; 'I' for Inactive)
REMARK    1  A    between atoms: N_1  and  CA_2
REMARK    2  A    between atoms: CA_2  and  C_3
REMARK    3  A    between atoms: CA_2  and  C_14
REMARK    4  A    between atoms: C_3  and  C_4
REMARK    5  A    between atoms: C_10  and  O_11
REMARK    6  A    between atoms: C_14  and  O_15
REMARK                            x       y       z     vdW  Elec       q    Type
REMARK                         _______ _______ _______ _____ _____    ______ ____
ROOT
ATOM      1  C   UNL     1      -0.222  -0.975  -0.408  0.00  0.00    -0.020 A 
ATOM      2  C   UNL     1      -0.286  -2.273   0.090  0.00  0.00    +0.087 A 
ATOM      3  N   UNL     1       0.889  -2.616   0.665  0.00  0.00    -0.360 N 
ATOM      4  C   UNL     1       1.690  -1.542   0.544  0.00  0.00    +0.047 A 
ATOM      5  C   UNL     1       1.045  -0.519  -0.101  0.00  0.00    +0.006 A 
ATOM      6  C   UNL     1       1.662   0.711  -0.329  0.00  0.00    +0.055 A 
ATOM      7  C   UNL     1       2.988   0.877   0.122  0.00  0.00    +0.118 A 
ATOM      8  C   UNL     1       3.651  -0.182   0.784  0.00  0.00    +0.047 A 
ATOM      9  C   UNL     1       2.999  -1.409   1.003  0.00  0.00    +0.030 A 
ATOM     10  H   UNL     1       1.119  -3.526   1.122  0.00  0.00    +0.165 HD
ENDROOT
BRANCH   7  11
ATOM     11  O   UNL     1       3.656   2.083  -0.079  0.00  0.00    -0.507 OA
ATOM     12  H   UNL     1       3.211   2.862  -0.549  0.00  0.00    +0.292 HD
ENDBRANCH   7  11
BRANCH   1  13
ATOM     13  C   UNL     1      -1.338  -0.208  -1.056  0.00  0.00    +0.067 C 
BRANCH  13  14
ATOM     14  CA  UNL     1      -2.052   0.701  -0.042  0.00  0.00    +0.165 C 
BRANCH  14  15
ATOM     15  N   UNL     1      -2.674  -0.097   1.018  0.00  0.00    -0.318 NA
ATOM     16  H1  UNL     1      -3.118   0.551   1.710  0.00  0.00    +0.119 HD
ATOM     17  H2  UNL     1      -3.433  -0.691   0.611  0.00  0.00    +0.119 HD
ENDBRANCH  14  15
BRANCH  14  18
ATOM     18  C   UNL     1      -3.076   1.561  -0.735  0.00  0.00    +0.322 C 
ATOM     19  OXT UNL     1      -4.063   1.034  -1.315  0.00  0.00    -0.249 OA
BRANCH  18  20
ATOM     20  O   UNL     1      -2.927   2.944  -0.739  0.00  0.00    -0.480 OA
ATOM     21  H   UNL     1      -3.604   3.538  -1.203  0.00  0.00    +0.295 HD
ENDBRANCH  18  20
ENDBRANCH  14  18
ENDBRANCH  13  14
ENDBRANCH   1  13
TORSDOF 6
