REMARK  Name = 
REMARK  12 active torsions:
REMARK  status: ('A' for Active; 'I' for Inactive)
REMARK    1  A    between atoms: C_1  and  C_2
REMARK    2  A    between atoms: C_2  and  C_3
REMARK    3  A    between atoms: C_2  and  N_4
REMARK    4  A    between atoms: N_4  and  C_5
REMARK    5  A    between atoms: C_5  and  C_6
REMARK    6  A    between atoms: C_6  and  O_7
REMARK    7  A    between atoms: C_6  and  C_8
REMARK    8  A    between atoms: C_8  and  O_9
REMARK    9  A    between atoms: O_9  and  C_10
REMARK   10  A    between atoms: C_15  and  O_16
REMARK   11  A    between atoms: O_16  and  C_17
REMARK   12  A    between atoms: C_17  and  C_18
REMARK                            x       y       z     vdW  Elec       q    Type
REMARK                         _______ _______ _______ _____ _____    ______ ____
ROOT
ATOM      1  O   UNL     1       1.012   0.231   2.172  0.00  0.00    -0.486 OA
ENDROOT
BRANCH   1   2
ATOM      2  C   UNL     1       1.263  -0.865   1.327  0.00  0.00    +0.162 A 
ATOM      3  C   UNL     1       0.419  -1.993   1.270  0.00  0.00    +0.049 A 
ATOM      4  C   UNL     1       0.713  -3.051   0.408  0.00  0.00    +0.004 A 
ATOM      5  C   UNL     1       1.849  -3.002  -0.398  0.00  0.00    +0.004 A 
ATOM      6  C   UNL     1       2.699  -1.897  -0.344  0.00  0.00    +0.049 A 
ATOM      7  C   UNL     1       2.412  -0.821   0.520  0.00  0.00    +0.162 A 
BRANCH   7   8
ATOM      8  O   UNL     1       3.238   0.314   0.603  0.00  0.00    -0.484 OA
BRANCH   8   9
ATOM      9  C   UNL     1       4.406   0.547  -0.184  0.00  0.00    +0.256 C 
BRANCH   9  10
ATOM     10  C   UNL     1       4.035   0.844  -1.609  0.00  0.00    +0.006 C 
ATOM     11  C   UNL     1       4.973   1.079  -2.529  0.00  0.00    +0.007 C 
ENDBRANCH   9  10
ENDBRANCH   8   9
ENDBRANCH   7   8
ENDBRANCH   1   2
BRANCH   1  12
ATOM     12  C   UNL     1      -0.212   0.521   2.853  0.00  0.00    +0.261 C 
BRANCH  12  13
ATOM     13  C   UNL     1      -1.180   1.337   1.973  0.00  0.00    +0.166 C 
BRANCH  13  14
ATOM     14  O   UNL     1      -0.579   2.541   1.564  0.00  0.00    -0.387 OA
ATOM     15  H   UNL     1       0.159   2.314   0.940  0.00  0.00    +0.210 HD
ENDBRANCH  13  14
BRANCH  13  16
ATOM     16  C   UNL     1      -1.714   0.541   0.767  0.00  0.00    +0.115 C 
BRANCH  16  17
ATOM     17  N   UNL     1      -2.769   1.304   0.082  0.00  0.00    -0.311 NA
ATOM     18  H   UNL     1      -2.303   2.130  -0.363  0.00  0.00    +0.122 HD
BRANCH  17  20
ATOM     19  C   UNL     1      -4.011   1.411  -2.057  0.00  0.00    +0.023 C 
ATOM     20  C   UNL     1      -3.428   0.498  -0.967  0.00  0.00    +0.048 C 
ATOM     21  C   UNL     1      -4.555  -0.344  -0.353  0.00  0.00    +0.023 C 
ENDBRANCH  17  20
ENDBRANCH  16  17
ENDBRANCH  13  16
ENDBRANCH  12  13
ENDBRANCH   1  12
TORSDOF 10
