REMARK  Name = 
REMARK  8 active torsions:
REMARK  status: ('A' for Active; 'I' for Inactive)
REMARK    1  A    between atoms: C_1  and  N_2
REMARK    2  A    between atoms: N_2  and  C_3
REMARK    3  A    between atoms: N_2  and  C_4
REMARK    4  A    between atoms: N_2  and  C_5
REMARK    5  A    between atoms: C_5  and  C_6
REMARK    6  A    between atoms: C_6  and  O_7
REMARK    7  A    between atoms: C_8  and  N_9
REMARK    8  A    between atoms: N_17  and  C_18
REMARK                            x       y       z     vdW  Elec       q    Type
REMARK                         _______ _______ _______ _____ _____    ______ ____
ROOT
ATOM      1  C   UNL     1      -1.518  -0.153  -1.226  0.00  0.00    -0.093 C 
ATOM      2  N   UNL     1      -0.544  -0.150  -0.106  0.00  0.00    +0.376 N 
ATOM      3  C   UNL     1      -0.702  -1.420   0.645  0.00  0.00    -0.093 C 
ATOM      4  C   UNL     1      -0.859   0.995   0.780  0.00  0.00    -0.093 C 
ENDROOT
BRANCH   2   5
ATOM      5  C   UNL     1       0.829  -0.034  -0.693  0.00  0.00    -0.048 C 
BRANCH   5   6
ATOM      6  C   UNL     1       1.988   0.099   0.323  0.00  0.00    +0.138 C 
BRANCH   6   7
ATOM      7  O   UNL     1       2.063   1.396   0.849  0.00  0.00    -0.397 OA
ATOM      8  H   UNL     1       2.433   1.975   0.133  0.00  0.00    +0.209 HD
ENDBRANCH   6   7
ENDBRANCH   5   6
ENDBRANCH   2   5
TORSDOF 3
REMARK  Name = 
REMARK  8 active torsions:
REMARK  status: ('A' for Active; 'I' for Inactive)
REMARK    1  A    between atoms: C_1  and  N_2
REMARK    2  A    between atoms: N_2  and  C_3
REMARK    3  A    between atoms: N_2  and  C_4
REMARK    4  A    between atoms: N_2  and  C_5
REMARK    5  A    between atoms: C_5  and  C_6
REMARK    6  A    between atoms: C_6  and  O_7
REMARK    7  A    between atoms: C_8  and  N_9
REMARK    8  A    between atoms: N_17  and  C_18
REMARK                            x       y       z     vdW  Elec       q    Type
REMARK                         _______ _______ _______ _____ _____    ______ ____
ROOT
ATOM      1  C   UNL     1      -0.953   2.423   0.062  0.00  0.00    +0.155 C 
ATOM      2  N   UNL     1      -0.432   1.051   0.006  0.00  0.00    -0.280 N 
ATOM      3  C   UNL     1      -1.275  -0.018  -0.011  0.00  0.00    +0.170 A 
ATOM      4  C   UNL     1      -0.829  -1.288  -0.044  0.00  0.00    +0.172 A 
ATOM      5  N   UNL     1      -1.858  -2.147  -0.072  0.00  0.00    -0.227 NA
ATOM      6  C   UNL     1      -2.932  -1.314  -0.052  0.00  0.00    +0.224 A 
ATOM      7  N   UNL     1      -2.617   0.007  -0.015  0.00  0.00    -0.216 NA
ATOM      8  C   UNL     1       0.528  -1.558  -0.042  0.00  0.00    +0.284 A 
ATOM      9  O   UNL     1       0.936  -2.751  -0.095  0.00  0.00    -0.265 OA
ATOM     10  N   UNL     1       1.405  -0.499   0.018  0.00  0.00    -0.262 N 
ATOM     11  C   UNL     1       2.856  -0.744   0.000  0.00  0.00    +0.157 C 
ATOM     12  C   UNL     1       0.924   0.801   0.028  0.00  0.00    +0.333 A 
ATOM     13  O   UNL     1       1.734   1.770   0.058  0.00  0.00    -0.246 OA
ENDROOT
TORSDOF 0
