REMARK  Name = 
REMARK  13 active torsions:
REMARK  status: ('A' for Active; 'I' for Inactive)
REMARK    1  A    between atoms: C_1  and  C_2
REMARK    2  A    between atoms: C_2  and  N_3
REMARK    3  A    between atoms: N_3  and  C_4
REMARK    4  A    between atoms: N_3  and  C_6
REMARK    5  A    between atoms: C_4  and  C_5
REMARK    6  A    between atoms: C_6  and  C_7
REMARK    7  A    between atoms: C_8  and  C_9
REMARK    8  A    between atoms: C_9  and  O_10
REMARK    9  A    between atoms: O_10  and  C_11
REMARK   10  A    between atoms: C_11  and  C_13
REMARK   11  A    between atoms: C_13  and  O_14
REMARK   12  A    between atoms: C_13  and  C_15
REMARK   13  A    between atoms: C_13  and  C_21
REMARK                            x       y       z     vdW  Elec       q    Type
REMARK                         _______ _______ _______ _____ _____    ______ ____
ROOT
ATOM      1  C   UNL     1      -1.662   0.319   0.344  0.00  0.00    +0.190 C 
ENDROOT
BRANCH   1   2
ATOM      2  C   UNL     1      -2.646   1.166  -0.557  0.00  0.00    +0.036 C 
ATOM      3  C   UNL     1      -3.196   0.423  -1.817  0.00  0.00    +0.007 C 
ATOM      4  C   UNL     1      -4.709   0.554  -2.004  0.00  0.00    +0.000 C 
ATOM      5  C   UNL     1      -5.431   0.176  -0.714  0.00  0.00    +0.000 C 
ATOM      6  C   UNL     1      -5.068   1.116   0.448  0.00  0.00    +0.000 C 
ATOM      7  C   UNL     1      -3.755   1.906   0.247  0.00  0.00    +0.007 C 
ENDBRANCH   1   2
BRANCH   1   8
ATOM      8  C   UNL     1      -2.406  -0.791   1.106  0.00  0.00    -0.005 A 
ATOM      9  C   UNL     1      -2.870  -0.568   2.423  0.00  0.00    +0.007 A 
ATOM     10  C   UNL     1      -3.566  -1.559   3.117  0.00  0.00    +0.000 A 
ATOM     11  C   UNL     1      -3.807  -2.795   2.519  0.00  0.00    +0.000 A 
ATOM     12  C   UNL     1      -3.349  -3.043   1.226  0.00  0.00    +0.000 A 
ATOM     13  C   UNL     1      -2.654  -2.055   0.523  0.00  0.00    +0.007 A 
ENDBRANCH   1   8
BRANCH   1  14
ATOM     14  C   UNL     1      -0.520  -0.274  -0.473  0.00  0.00    +0.345 C 
ATOM     15  O   UNL     1       0.225  -1.154   0.043  0.00  0.00    -0.247 OA
BRANCH  14  16
ATOM     16  O   UNL     1      -0.228   0.229  -1.749  0.00  0.00    -0.449 OA
BRANCH  16  17
ATOM     17  C   UNL     1       0.875  -0.216  -2.533  0.00  0.00    +0.320 C 
BRANCH  17  19
ATOM     18  C   UNL     1       3.159   0.714  -1.504  0.00  0.00    -0.083 C 
ATOM     19  C   UNL     1       2.130   0.294  -1.972  0.00  0.00    -0.060 C 
BRANCH  18  20
ATOM     20  C   UNL     1       4.410   1.222  -0.931  0.00  0.00    +0.174 C 
BRANCH  20  21
ATOM     21  N   UNL     1       4.861   0.335   0.161  0.00  0.00    -0.292 NA
BRANCH  21  23
ATOM     22  C   UNL     1       5.687  -1.954   0.699  0.00  0.00    +0.020 C 
ATOM     23  C   UNL     1       5.544  -0.870  -0.367  0.00  0.00    +0.082 C 
ENDBRANCH  21  23
BRANCH  21  24
ATOM     24  C   UNL     1       5.638   1.069   1.191  0.00  0.00    +0.082 C 
ATOM     25  C   UNL     1       6.970   1.644   0.688  0.00  0.00    +0.020 C 
ENDBRANCH  21  24
ENDBRANCH  20  21
ENDBRANCH  18  20
ENDBRANCH  17  19
ENDBRANCH  16  17
ENDBRANCH  14  16
ENDBRANCH   1  14
BRANCH   1  26
ATOM     26  O   UNL     1      -1.066   1.179   1.293  0.00  0.00    -0.373 OA
ATOM     27  H   UNL     1      -0.561   1.885   0.809  0.00  0.00    +0.211 HD
ENDBRANCH   1  26
TORSDOF 11
