REMARK  Name = 
REMARK  5 active torsions:
REMARK  status: ('A' for Active; 'I' for Inactive)
REMARK    1  A    between atoms: C_1  and  O_2
REMARK    2  A    between atoms: O_2  and  C_3
REMARK    3  A    between atoms: C_5  and  O_6
REMARK    4  A    between atoms: C_7  and  C_10
REMARK    5  A    between atoms: C_10  and  C_12
REMARK                            x       y       z     vdW  Elec       q    Type
REMARK                         _______ _______ _______ _____ _____    ______ ____
ROOT
ATOM      1  C   UNL     1       2.856  -0.122  -0.749  0.00  0.00    +0.124 A 
ATOM      2  C   UNL     1       2.601  -0.559   0.564  0.00  0.00    +0.091 A 
ATOM      3  C   UNL     1       1.298  -0.867   0.975  0.00  0.00    +0.131 A 
ATOM      4  C   UNL     1       0.228  -0.754   0.059  0.00  0.00    +0.064 A 
ATOM      5  C   UNL     1       0.490  -0.317  -1.250  0.00  0.00    +0.019 A 
ATOM      6  C   UNL     1       1.791  -0.001  -1.646  0.00  0.00    +0.046 A 
ENDROOT
BRANCH   1   8
ATOM      7  C   UNL     1       5.319   0.127  -0.396  0.00  0.00    +0.277 C 
ATOM      8  O   UNL     1       4.145   0.202  -1.198  0.00  0.00    -0.495 OA
ENDBRANCH   1   8
BRANCH   3   9
ATOM      9  O   UNL     1       1.100  -1.258   2.301  0.00  0.00    -0.506 OA
ATOM     10  H   UNL     1       0.184  -1.415   2.700  0.00  0.00    +0.292 HD
ENDBRANCH   3   9
BRANCH   4  11
ATOM     11  C   UNL     1      -1.155  -1.131   0.426  0.00  0.00    +0.197 C 
ATOM     12  O   UNL     1      -1.360  -2.272   0.923  0.00  0.00    -0.287 OA
BRANCH  11  13
ATOM     13  C   UNL     1      -2.305  -0.220   0.192  0.00  0.00    +0.022 A 
ATOM     14  C   UNL     1      -3.615  -0.733   0.146  0.00  0.00    +0.012 A 
ATOM     15  C   UNL     1      -4.704   0.119  -0.066  0.00  0.00    +0.001 A 
ATOM     16  C   UNL     1      -4.499   1.491  -0.228  0.00  0.00    +0.000 A 
ATOM     17  C   UNL     1      -3.206   2.014  -0.175  0.00  0.00    +0.001 A 
ATOM     18  C   UNL     1      -2.114   1.168   0.037  0.00  0.00    +0.012 A 
ENDBRANCH  11  13
ENDBRANCH   4  11
TORSDOF 4
