REMARK  Name = 
REMARK  15 active torsions:
REMARK  status: ('A' for Active; 'I' for Inactive)
REMARK    1  A    between atoms: C_1  and  C_2
REMARK    2  A    between atoms: C_2  and  C_3
REMARK    3  A    between atoms: C_3  and  C_4
REMARK    4  A    between atoms: C_4  and  O_5
REMARK    5  A    between atoms: O_5  and  C_6
REMARK    6  A    between atoms: C_7  and  N_8
REMARK    7  A    between atoms: C_11  and  C_13
REMARK    8  A    between atoms: C_13  and  O_15
REMARK    9  A    between atoms: O_15  and  C_16
REMARK   10  A    between atoms: C_16  and  C_17
REMARK   11  A    between atoms: C_17  and  N_18
REMARK   12  A    between atoms: N_18  and  C_19
REMARK   13  A    between atoms: N_18  and  C_21
REMARK   14  A    between atoms: C_19  and  C_20
REMARK   15  A    between atoms: C_21  and  C_22
REMARK                            x       y       z     vdW  Elec       q    Type
REMARK                         _______ _______ _______ _____ _____    ______ ____
ROOT
ATOM      1  C   UNL     1       2.881  -1.543  -0.973  0.00  0.00    +0.142 A 
ATOM      2  C   UNL     1       2.241  -1.698  -2.219  0.00  0.00    +0.067 A 
ATOM      3  C   UNL     1       0.848  -1.590  -2.307  0.00  0.00    +0.027 A 
ATOM      4  C   UNL     1       0.082  -1.334  -1.170  0.00  0.00    +0.017 A 
ATOM      5  C   UNL     1       0.699  -1.184   0.082  0.00  0.00    +0.063 A 
ATOM      6  C   UNL     1       2.097  -1.297   0.174  0.00  0.00    +0.062 A 
ENDROOT
BRANCH   2   7
ATOM      7  N   UNL     1       3.004  -1.953  -3.404  0.00  0.00    -0.355 N 
ATOM      8  H   UNL     1       2.530  -2.062  -4.329  0.00  0.00    +0.142 HD
ATOM      9  H   UNL     1       4.043  -2.054  -3.374  0.00  0.00    +0.142 HD
ENDBRANCH   2   7
BRANCH   5  10
ATOM     10  C   UNL     1      -0.118  -0.905   1.284  0.00  0.00    +0.339 C 
ATOM     11  O   UNL     1       0.433  -0.787   2.415  0.00  0.00    -0.245 OA
BRANCH  10  12
ATOM     12  O   UNL     1      -1.504  -0.764   1.164  0.00  0.00    -0.460 OA
BRANCH  12  13
ATOM     13  C   UNL     1      -2.348  -0.466   2.271  0.00  0.00    +0.248 C 
BRANCH  13  14
ATOM     14  C   UNL     1      -3.793  -0.335   1.795  0.00  0.00    +0.125 C 
BRANCH  14  15
ATOM     15  N   UNL     1      -3.898   0.647   0.691  0.00  0.00    -0.300 NA
BRANCH  15  16
ATOM     16  C   UNL     1      -4.993   0.329  -0.251  0.00  0.00    +0.081 C 
ATOM     17  C   UNL     1      -4.502  -0.646  -1.316  0.00  0.00    +0.020 C 
ENDBRANCH  15  16
BRANCH  15  18
ATOM     18  C   UNL     1      -3.921   2.059   1.144  0.00  0.00    +0.081 C 
ATOM     19  C   UNL     1      -5.183   2.454   1.924  0.00  0.00    +0.020 C 
ENDBRANCH  15  18
ENDBRANCH  14  15
ENDBRANCH  13  14
ENDBRANCH  12  13
ENDBRANCH  10  12
ENDBRANCH   5  10
BRANCH   1  20
ATOM     20  O   UNL     1       4.283  -1.649  -0.925  0.00  0.00    -0.490 OA
BRANCH  20  21
ATOM     21  C   UNL     1       5.129  -1.342   0.186  0.00  0.00    +0.229 C 
BRANCH  21  22
ATOM     22  C   UNL     1       5.558   0.130   0.173  0.00  0.00    +0.041 C 
BRANCH  22  24
ATOM     23  C   UNL     1       4.912   2.528   0.623  0.00  0.00    +0.004 C 
ATOM     24  C   UNL     1       4.415   1.089   0.525  0.00  0.00    -0.000 C 
ENDBRANCH  22  24
ENDBRANCH  21  22
ENDBRANCH  20  21
ENDBRANCH   1  20
TORSDOF 12
