REMARK  Name = 
REMARK  4 active torsions:
REMARK  status: ('A' for Active; 'I' for Inactive)
REMARK    1  A    between atoms: C_4  and  O_5
REMARK    2  A    between atoms: O_5  and  C_6
REMARK    3  A    between atoms: N_14  and  C_15
REMARK    4  A    between atoms: C_18  and  O_19
REMARK                            x       y       z     vdW  Elec       q    Type
REMARK                         _______ _______ _______ _____ _____    ______ ____
ROOT
ATOM      1  C   UNL     1       0.487  -2.122  -1.065  0.00  0.00    +0.252 C 
ATOM      2  O   UNL     1       1.851  -1.700  -0.920  0.00  0.00    -0.476 OA
ATOM      3  C   UNL     1       1.898  -0.411  -0.427  0.00  0.00    +0.167 A 
ATOM      4  C   UNL     1       3.008   0.271   0.071  0.00  0.00    +0.162 A 
ATOM      5  C   UNL     1       2.779   1.520   0.701  0.00  0.00    +0.050 A 
ATOM      6  C   UNL     1       1.462   2.007   0.861  0.00  0.00    +0.008 A 
ATOM      7  C   UNL     1       0.374   1.285   0.335  0.00  0.00    -0.038 A 
ATOM      8  C   UNL     1       0.652   0.125  -0.376  0.00  0.00    +0.014 A 
ATOM      9  C   UNL     1      -0.353  -0.801  -0.964  0.00  0.00    +0.075 C 
ATOM     10  C   UNL     1      -0.752  -0.274  -2.370  0.00  0.00    +0.034 C 
ATOM     11  C   UNL     1      -1.483   1.083  -2.295  0.00  0.00    +0.085 C 
ATOM     12  N   UNL     1      -2.568   1.059  -1.290  0.00  0.00    -0.299 NA
ATOM     13  C   UNL     1      -3.327   2.320  -1.286  0.00  0.00    +0.105 C 
ATOM     14  C   UNL     1      -2.117   0.629   0.061  0.00  0.00    +0.093 C 
ATOM     15  C   UNL     1      -1.058   1.605   0.699  0.00  0.00    +0.057 C 
ATOM     16  C   UNL     1      -1.604  -0.847  -0.054  0.00  0.00    +0.096 C 
ATOM     17  C   UNL     1      -1.243  -1.475   1.312  0.00  0.00    +0.045 C 
ATOM     18  C   UNL     1      -0.789  -2.930   1.146  0.00  0.00    +0.081 C 
ATOM     19  C   UNL     1       0.183  -3.150   0.008  0.00  0.00    +0.175 C 
ATOM     20  O   UNL     1       0.749  -4.231  -0.058  0.00  0.00    -0.293 OA
ENDROOT
BRANCH   4  21
ATOM     21  O   UNL     1       4.279  -0.309  -0.043  0.00  0.00    -0.491 OA
ATOM     22  C   UNL     1       5.476   0.292   0.440  0.00  0.00    +0.277 C 
ENDBRANCH   4  21
BRANCH  16  23
ATOM     23  O   UNL     1      -2.594  -1.642  -0.673  0.00  0.00    -0.386 OA
ATOM     24  H   UNL     1      -3.407  -1.612  -0.103  0.00  0.00    +0.210 HD
ENDBRANCH  16  23
TORSDOF 2
