REMARK  Name = 
REMARK  3 active torsions:
REMARK  status: ('A' for Active; 'I' for Inactive)
REMARK    1  A    between atoms: C_4  and  O_5
REMARK    2  A    between atoms: N_13  and  C_14
REMARK    3  A    between atoms: C_17  and  O_18
REMARK                            x       y       z     vdW  Elec       q    Type
REMARK                         _______ _______ _______ _____ _____    ______ ____
ROOT
ATOM      1  C   UNL     1       1.681   1.535   0.810  0.00  0.00    +0.252 C 
ATOM      2  O   UNL     1       2.753   0.914   0.085  0.00  0.00    -0.476 OA
ATOM      3  C   UNL     1       2.272  -0.155  -0.644  0.00  0.00    +0.167 A 
ATOM      4  C   UNL     1       2.924  -0.867  -1.650  0.00  0.00    +0.159 A 
ATOM      5  C   UNL     1       2.170  -1.800  -2.393  0.00  0.00    +0.049 A 
ATOM      6  C   UNL     1       0.785  -1.950  -2.153  0.00  0.00    +0.008 A 
ATOM      7  C   UNL     1       0.166  -1.215  -1.122  0.00  0.00    -0.038 A 
ATOM      8  C   UNL     1       0.970  -0.395  -0.339  0.00  0.00    +0.014 A 
ATOM      9  C   UNL     1       0.505   0.497   0.757  0.00  0.00    +0.075 C 
ATOM     10  C   UNL     1       0.419  -0.331   2.068  0.00  0.00    +0.034 C 
ATOM     11  C   UNL     1      -0.658  -1.432   1.990  0.00  0.00    +0.085 C 
ATOM     12  N   UNL     1      -1.942  -0.899   1.486  0.00  0.00    -0.299 NA
ATOM     13  C   UNL     1      -2.996  -1.925   1.502  0.00  0.00    +0.105 C 
ATOM     14  C   UNL     1      -1.821  -0.188   0.184  0.00  0.00    +0.093 C 
ATOM     15  C   UNL     1      -1.336  -1.122  -0.987  0.00  0.00    +0.057 C 
ATOM     16  C   UNL     1      -0.894   1.057   0.404  0.00  0.00    +0.096 C 
ATOM     17  C   UNL     1      -0.801   1.974  -0.836  0.00  0.00    +0.045 C 
ATOM     18  C   UNL     1       0.081   3.196  -0.552  0.00  0.00    +0.081 C 
ATOM     19  C   UNL     1       1.374   2.874   0.165  0.00  0.00    +0.175 C 
ATOM     20  O   UNL     1       2.219   3.753   0.241  0.00  0.00    -0.293 OA
ENDROOT
BRANCH   4  21
ATOM     21  O   UNL     1       4.269  -0.634  -1.923  0.00  0.00    -0.503 OA
ATOM     22  H   UNL     1       4.751  -1.138  -2.658  0.00  0.00    +0.292 HD
ENDBRANCH   4  21
BRANCH  16  23
ATOM     23  O   UNL     1      -1.375   1.813   1.496  0.00  0.00    -0.386 OA
ATOM     24  H   UNL     1      -2.295   2.115   1.274  0.00  0.00    +0.210 HD
ENDBRANCH  16  23
TORSDOF 2
