REMARK  Name = 
REMARK  9 active torsions:
REMARK  status: ('A' for Active; 'I' for Inactive)
REMARK    1  A    between atoms: C_1  and  C_2
REMARK    2  A    between atoms: C_4  and  C_16
REMARK    3  A    between atoms: C_5  and  O_6
REMARK    4  A    between atoms: C_7  and  C_8
REMARK    5  A    between atoms: C_9  and  C_10
REMARK    6  A    between atoms: C_10  and  C_11
REMARK    7  A    between atoms: C_16  and  C_17
REMARK    8  A    between atoms: C_16  and  C_18
REMARK    9  A    between atoms: C_16  and  C_19
REMARK                            x       y       z     vdW  Elec       q    Type
REMARK                         _______ _______ _______ _____ _____    ______ ____
ROOT
ATOM      1  C   UNL     1       0.693  -2.700  -0.877  0.00  0.00    +0.044 C 
ATOM      2  C   UNL     1       0.108  -1.498  -0.170  0.00  0.00    -0.046 A 
ATOM      3  C   UNL     1      -1.249  -1.218  -0.360  0.00  0.00    +0.011 A 
ATOM      4  C   UNL     1      -1.895  -0.143   0.286  0.00  0.00    -0.000 A 
ATOM      5  C   UNL     1      -1.114   0.671   1.149  0.00  0.00    +0.124 A 
ATOM      6  C   UNL     1       0.280   0.446   1.302  0.00  0.00    -0.005 A 
ATOM      7  C   UNL     1       1.090   1.411   2.144  0.00  0.00    +0.048 C 
ATOM      8  C   UNL     1       0.883  -0.689   0.694  0.00  0.00    -0.031 A 
ENDROOT
BRANCH   4   9
ATOM      9  C   UNL     1      -3.414   0.129   0.075  0.00  0.00    -0.009 C 
ATOM     10  C   UNL     1      -4.072  -0.841  -0.943  0.00  0.00    +0.015 C 
ATOM     11  C   UNL     1      -4.176  -0.043   1.409  0.00  0.00    +0.015 C 
ATOM     12  C   UNL     1      -3.630   1.558  -0.476  0.00  0.00    +0.015 C 
ENDBRANCH   4   9
BRANCH   5  13
ATOM     13  O   UNL     1      -1.741   1.697   1.864  0.00  0.00    -0.506 OA
ATOM     14  H   UNL     1      -1.301   2.236   2.598  0.00  0.00    +0.292 HD
ENDBRANCH   5  13
BRANCH   8  15
ATOM     15  C   UNL     1       2.348  -1.024   0.946  0.00  0.00    +0.106 C 
BRANCH  15  16
ATOM     16  C   UNL     1       3.255  -0.228   0.053  0.00  0.00    +0.094 C 
ATOM     17  N   UNL     1       3.066  -0.111  -1.216  0.00  0.00    -0.272 NA
ATOM     18  C   UNL     1       4.141   0.683  -1.800  0.00  0.00    +0.162 C 
ATOM     19  C   UNL     1       5.074   1.021  -0.627  0.00  0.00    +0.126 C 
ATOM     20  N   UNL     1       4.434   0.399   0.514  0.00  0.00    -0.331 N 
ATOM     21  H   UNL     1       4.784   0.409   1.498  0.00  0.00    +0.147 HD
ENDBRANCH  15  16
ENDBRANCH   8  15
TORSDOF 4
