REMARK  Name = 
REMARK  8 active torsions:
REMARK  status: ('A' for Active; 'I' for Inactive)
REMARK    1  A    between atoms: C_1  and  N_2
REMARK    2  A    between atoms: C_7  and  C_8
REMARK    3  A    between atoms: C_8  and  O_9
REMARK    4  A    between atoms: O_9  and  C_10
REMARK    5  A    between atoms: C_10  and  C_12
REMARK    6  A    between atoms: C_12  and  O_13
REMARK    7  A    between atoms: C_12  and  C_14
REMARK    8  A    between atoms: C_12  and  C_20
REMARK                            x       y       z     vdW  Elec       q    Type
REMARK                         _______ _______ _______ _____ _____    ______ ____
ROOT
ATOM      1  C   UNL     1      -1.276  -0.612  -0.302  0.00  0.00    +0.190 C 
ENDROOT
BRANCH   1   2
ATOM      2  C   UNL     1      -1.726   0.266   0.927  0.00  0.00    +0.036 C 
ATOM      3  C   UNL     1      -0.792   1.474   1.226  0.00  0.00    +0.007 C 
ATOM      4  C   UNL     1      -1.027   2.674   0.298  0.00  0.00    +0.000 C 
ATOM      5  C   UNL     1      -2.496   3.104   0.305  0.00  0.00    +0.000 C 
ATOM      6  C   UNL     1      -3.421   1.940  -0.063  0.00  0.00    +0.000 C 
ATOM      7  C   UNL     1      -3.203   0.742   0.871  0.00  0.00    +0.007 C 
ENDBRANCH   1   2
BRANCH   1   8
ATOM      8  C   UNL     1      -2.208  -1.828  -0.450  0.00  0.00    -0.005 A 
ATOM      9  C   UNL     1      -3.184  -1.882  -1.472  0.00  0.00    +0.007 A 
ATOM     10  C   UNL     1      -4.049  -2.975  -1.578  0.00  0.00    +0.000 A 
ATOM     11  C   UNL     1      -3.973  -4.021  -0.659  0.00  0.00    +0.000 A 
ATOM     12  C   UNL     1      -3.042  -3.971   0.378  0.00  0.00    +0.000 A 
ATOM     13  C   UNL     1      -2.175  -2.881   0.491  0.00  0.00    +0.007 A 
ENDBRANCH   1   8
BRANCH   1  14
ATOM     14  C   UNL     1       0.157  -1.097  -0.106  0.00  0.00    +0.344 C 
ATOM     15  O   UNL     1       0.558  -1.460   1.036  0.00  0.00    -0.247 OA
BRANCH  14  16
ATOM     16  O   UNL     1       1.035  -1.136  -1.196  0.00  0.00    -0.455 OA
BRANCH  16  17
ATOM     17  C   UNL     1       2.443  -1.307  -1.048  0.00  0.00    +0.303 C 
BRANCH  17  24
ATOM     18  C   UNL     1       4.511  -1.478   1.146  0.00  0.00    +0.130 C 
ATOM     19  N   UNL     1       4.125  -0.186   0.572  0.00  0.00    -0.319 N 
ATOM     20  C   UNL     1       4.755   1.030   1.109  0.00  0.00    +0.108 C 
ATOM     21  C   UNL     1       4.591   2.212   0.152  0.00  0.00    +0.042 C 
ATOM     22  C   UNL     1       3.125   2.340  -0.245  0.00  0.00    +0.145 C 
ATOM     23  N   UNL     1       2.639   1.081  -0.800  0.00  0.00    -0.270 NA
ATOM     24  C   UNL     1       3.047  -0.088  -0.395  0.00  0.00    +0.130 C 
ENDBRANCH  17  24
ENDBRANCH  16  17
ENDBRANCH  14  16
ENDBRANCH   1  14
BRANCH   1  25
ATOM     25  O   UNL     1      -1.316   0.187  -1.464  0.00  0.00    -0.373 OA
ATOM     26  H   UNL     1      -1.054  -0.369  -2.244  0.00  0.00    +0.211 HD
ENDBRANCH   1  25
TORSDOF 7
