REMARK  Name = 
REMARK  13 active torsions:
REMARK  status: ('A' for Active; 'I' for Inactive)
REMARK    1  A    between atoms: C_1  and  C_2
REMARK    2  A    between atoms: C_2  and  N_3
REMARK    3  A    between atoms: N_3  and  C_4
REMARK    4  A    between atoms: N_3  and  C_5
REMARK    5  A    between atoms: N_3  and  C_7
REMARK    6  A    between atoms: C_5  and  C_6
REMARK    7  A    between atoms: C_7  and  C_8
REMARK    8  A    between atoms: C_8  and  O_9
REMARK    9  A    between atoms: O_9  and  C_10
REMARK   10  A    between atoms: C_10  and  C_12
REMARK   11  A    between atoms: C_12  and  O_13
REMARK   12  A    between atoms: C_12  and  C_14
REMARK   13  A    between atoms: C_12  and  C_20
REMARK                            x       y       z     vdW  Elec       q    Type
REMARK                         _______ _______ _______ _____ _____    ______ ____
ROOT
ATOM      1  C   UNL     1       2.402   0.695   1.332  0.00  0.00    +0.190 C 
ENDROOT
BRANCH   1   2
ATOM      2  C   UNL     1       2.802  -0.435   0.315  0.00  0.00    +0.036 C 
ATOM      3  C   UNL     1       2.406  -0.162  -1.162  0.00  0.00    +0.007 C 
ATOM      4  C   UNL     1       2.907  -1.280  -2.086  0.00  0.00    +0.000 C 
ATOM      5  C   UNL     1       2.391  -2.648  -1.628  0.00  0.00    +0.000 C 
ATOM      6  C   UNL     1       2.805  -2.931  -0.180  0.00  0.00    +0.000 C 
ATOM      7  C   UNL     1       2.298  -1.831   0.760  0.00  0.00    +0.007 C 
ENDBRANCH   1   2
BRANCH   1   8
ATOM      8  C   UNL     1       2.890   2.057   0.810  0.00  0.00    -0.005 A 
ATOM      9  C   UNL     1       4.256   2.391   0.917  0.00  0.00    +0.007 A 
ATOM     10  C   UNL     1       4.739   3.600   0.408  0.00  0.00    +0.000 A 
ATOM     11  C   UNL     1       3.873   4.487  -0.231  0.00  0.00    +0.000 A 
ATOM     12  C   UNL     1       2.523   4.163  -0.371  0.00  0.00    +0.000 A 
ATOM     13  C   UNL     1       2.033   2.957   0.136  0.00  0.00    +0.007 A 
ENDBRANCH   1   8
BRANCH   1  14
ATOM     14  C   UNL     1       0.904   0.717   1.625  0.00  0.00    +0.344 C 
ATOM     15  O   UNL     1       0.493   1.079   2.763  0.00  0.00    -0.247 OA
BRANCH  14  16
ATOM     16  O   UNL     1      -0.020   0.400   0.627  0.00  0.00    -0.464 OA
BRANCH  16  17
ATOM     17  C   UNL     1      -1.426   0.381   0.842  0.00  0.00    +0.214 C 
BRANCH  17  18
ATOM     18  C   UNL     1      -2.120  -0.035  -0.471  0.00  0.00    -0.034 C 
BRANCH  18  19
ATOM     19  N   UNL     1      -3.608  -0.227  -0.391  0.00  0.00    +0.380 N 
ATOM     20  C   UNL     1      -4.232   0.986   0.209  0.00  0.00    -0.092 C 
BRANCH  19  22
ATOM     21  C   UNL     1      -5.391  -1.878   0.451  0.00  0.00    -0.016 C 
ATOM     22  C   UNL     1      -3.918  -1.429   0.455  0.00  0.00    -0.079 C 
ENDBRANCH  19  22
BRANCH  19  23
ATOM     23  C   UNL     1      -4.149  -0.355  -1.786  0.00  0.00    -0.079 C 
ATOM     24  C   UNL     1      -3.618  -1.556  -2.591  0.00  0.00    -0.016 C 
ENDBRANCH  19  23
ENDBRANCH  18  19
ENDBRANCH  17  18
ENDBRANCH  16  17
ENDBRANCH  14  16
ENDBRANCH   1  14
BRANCH   1  25
ATOM     25  O   UNL     1       3.071   0.401   2.542  0.00  0.00    -0.373 OA
ATOM     26  H   UNL     1       2.970   1.174   3.158  0.00  0.00    +0.211 HD
ENDBRANCH   1  25
TORSDOF 10
