REMARK  Name = 
REMARK  11 active torsions:
REMARK  status: ('A' for Active; 'I' for Inactive)
REMARK    1  A    between atoms: C_2  and  O_3
REMARK    2  A    between atoms: C_9  and  O_10
REMARK    3  A    between atoms: C_15  and  C_16
REMARK    4  A    between atoms: C_15  and  O_17
REMARK    5  A    between atoms: C_18  and  O_19
REMARK    6  A    between atoms: C_20  and  O_21
REMARK    7  A    between atoms: C_24  and  C_25
REMARK    8  A    between atoms: C_28  and  O_29
REMARK    9  A    between atoms: C_30  and  N_31
REMARK   10  A    between atoms: N_31  and  C_32
REMARK   11  A    between atoms: N_31  and  C_33
REMARK                            x       y       z     vdW  Elec       q    Type
REMARK                         _______ _______ _______ _____ _____    ______ ____
ROOT
ATOM      1  C   UNL     1       1.134  -0.348   1.033  0.00  0.00    +0.090 C 
ATOM      2  C   UNL     1      -0.294  -1.000   0.970  0.00  0.00    +0.134 C 
ATOM      3  C   UNL     1      -1.444  -0.073   0.433  0.00  0.00    +0.091 C 
ATOM      4  C   UNL     1      -0.926   0.980  -0.553  0.00  0.00    +0.049 C 
ATOM      5  C   UNL     1      -1.903   1.503  -1.547  0.00  0.00    +0.197 C 
ATOM      6  O   UNL     1      -1.532   2.041  -2.622  0.00  0.00    -0.287 OA
ATOM      7  C   UNL     1      -3.348   1.295  -1.309  0.00  0.00    +0.069 A 
ATOM      8  C   UNL     1      -4.321   2.247  -1.722  0.00  0.00    +0.128 A 
ATOM      9  C   UNL     1      -5.675   1.970  -1.539  0.00  0.00    +0.046 A 
ATOM     10  C   UNL     1      -6.075   0.792  -0.931  0.00  0.00    +0.004 A 
ATOM     11  C   UNL     1      -5.129  -0.128  -0.481  0.00  0.00    +0.007 A 
ATOM     12  C   UNL     1      -3.748   0.110  -0.644  0.00  0.00    -0.001 A 
ATOM     13  C   UNL     1      -2.663  -0.884  -0.172  0.00  0.00    +0.098 C 
ATOM     14  C   UNL     1      -3.227  -1.876   0.870  0.00  0.00    +0.047 C 
ATOM     15  C   UNL     1       0.287   1.560  -0.337  0.00  0.00    +0.141 C 
ATOM     16  C   UNL     1       1.070   1.189   0.911  0.00  0.00    +0.192 C 
ATOM     17  C   UNL     1       2.472   1.771   0.862  0.00  0.00    +0.211 C 
ATOM     18  O   UNL     1       2.621   3.008   1.100  0.00  0.00    -0.288 OA
ATOM     19  C   UNL     1       3.654   0.960   0.456  0.00  0.00    +0.121 C 
ATOM     20  C   UNL     1       3.503  -0.334   0.082  0.00  0.00    +0.127 C 
ATOM     21  C   UNL     1       2.116  -0.966  -0.009  0.00  0.00    +0.132 C 
ENDROOT
BRANCH  19  22
ATOM     22  C   UNL     1       4.975   1.630   0.398  0.00  0.00    +0.248 C 
ATOM     23  N   UNL     1       5.449   2.409   1.494  0.00  0.00    -0.325 N 
ATOM     24  O   UNL     1       5.669   1.561  -0.654  0.00  0.00    -0.270 OA
ATOM     25  H   UNL     1       4.882   2.524   2.365  0.00  0.00    +0.145 HD
ATOM     26  H   UNL     1       6.349   2.936   1.393  0.00  0.00    +0.145 HD
ENDBRANCH  19  22
BRANCH  21  27
ATOM     27  N   UNL     1       2.133  -2.453   0.116  0.00  0.00    -0.298 NA
ATOM     28  C   UNL     1       2.851  -2.998   1.284  0.00  0.00    +0.105 C 
ATOM     29  C   UNL     1       2.500  -3.155  -1.122  0.00  0.00    +0.105 C 
ENDBRANCH  21  27
BRANCH   2  30
ATOM     30  O   UNL     1      -0.627  -1.498   2.248  0.00  0.00    -0.391 OA
ATOM     31  H   UNL     1      -0.652  -0.726   2.880  0.00  0.00    +0.210 HD
ENDBRANCH   2  30
BRANCH   8  32
ATOM     32  O   UNL     1      -3.986   3.483  -2.288  0.00  0.00    -0.506 OA
ATOM     33  H   UNL     1      -3.048   3.862  -2.311  0.00  0.00    +0.292 HD
ENDBRANCH   8  32
BRANCH  13  34
ATOM     34  O   UNL     1      -2.238  -1.667  -1.263  0.00  0.00    -0.384 OA
ATOM     35  H   UNL     1      -1.909  -1.077  -1.987  0.00  0.00    +0.211 HD
ENDBRANCH  13  34
BRANCH  15  36
ATOM     36  O   UNL     1       0.847   2.530  -1.182  0.00  0.00    -0.507 OA
ATOM     37  H   UNL     1       0.544   2.747  -2.114  0.00  0.00    +0.292 HD
ENDBRANCH  15  36
BRANCH  16  38
ATOM     38  O   UNL     1       0.410   1.689   2.052  0.00  0.00    -0.373 OA
ATOM     39  H   UNL     1       0.234   2.655   1.909  0.00  0.00    +0.211 HD
ENDBRANCH  16  38
BRANCH  20  40
ATOM     40  O   UNL     1       4.608  -1.113  -0.282  0.00  0.00    -0.509 OA
ATOM     41  H   UNL     1       5.576  -0.829  -0.163  0.00  0.00    +0.292 HD
ENDBRANCH  20  40
TORSDOF 8
