REMARK  Name = 
REMARK  23 active torsions:
REMARK  status: ('A' for Active; 'I' for Inactive)
REMARK    1  A    between atoms: C_2  and  O_3
REMARK    2  A    between atoms: O_3  and  C_4
REMARK    3  A    between atoms: C_4  and  C_6
REMARK    4  A    between atoms: C_12  and  O_13
REMARK    5  A    between atoms: C_15  and  O_16
REMARK    6  A    between atoms: O_16  and  C_17
REMARK    7  A    between atoms: C_17  and  C_19
REMARK    8  A    between atoms: C_19  and  O_20
REMARK    9  A    between atoms: C_19  and  C_21
REMARK   10  A    between atoms: C_21  and  N_22
REMARK   11  A    between atoms: C_21  and  C_31
REMARK   12  A    between atoms: C_23  and  C_25
REMARK   13  A    between atoms: C_37  and  C_38
REMARK   14  A    between atoms: C_40  and  O_41
REMARK   15  A    between atoms: O_41  and  C_42
REMARK   16  A    between atoms: C_42  and  C_43
REMARK   17  A    between atoms: C_47  and  C_48
REMARK   18  A    between atoms: C_49  and  O_50
REMARK   19  A    between atoms: C_55  and  O_56
REMARK   20  A    between atoms: O_56  and  C_57
REMARK   21  A    between atoms: C_57  and  C_58
REMARK   22  A    between atoms: C_60  and  C_61
REMARK   23  A    between atoms: C_60  and  C_62
REMARK                            x       y       z     vdW  Elec       q    Type
REMARK                         _______ _______ _______ _____ _____    ______ ____
ROOT
ATOM      1  C   UNL     1      -3.062   0.511  -0.005  0.00  0.00    +0.097 C 
ATOM      2  C   UNL     1      -3.112  -0.449  -1.285  0.00  0.00    +0.217 C 
ATOM      3  C   UNL     1      -1.853  -0.475  -2.272  0.00  0.00    +0.116 C 
ATOM      4  C   UNL     1      -0.576  -1.008  -1.498  0.00  0.00    +0.088 C 
ATOM      5  C   UNL     1       0.590   0.005  -1.310  0.00  0.00    +0.205 C 
ATOM      6  C   UNL     1       0.076   1.427  -1.138  0.00  0.00    -0.029 C 
ATOM      7  C   UNL     1       0.782   2.339  -0.152  0.00  0.00    +0.043 C 
ATOM      8  C   UNL     1      -1.015   1.841  -1.861  0.00  0.00    -0.011 C 
ATOM      9  C   UNL     1      -1.768   3.102  -1.463  0.00  0.00    +0.270 C 
ATOM     10  C   UNL     1      -3.247   2.843  -1.231  0.00  0.00    +0.187 C 
ATOM     11  O   UNL     1      -4.035   3.538  -1.868  0.00  0.00    -0.292 OA
ATOM     12  C   UNL     1      -3.808   1.920  -0.122  0.00  0.00    +0.066 C 
ATOM     13  C   UNL     1      -5.334   1.727  -0.391  0.00  0.00    +0.022 C 
ATOM     14  C   UNL     1      -3.578   2.678   1.223  0.00  0.00    +0.131 C 
ATOM     15  C   UNL     1      -4.281   2.000   2.405  0.00  0.00    +0.068 C 
ATOM     16  C   UNL     1      -3.917   0.514   2.555  0.00  0.00    +0.167 C 
ATOM     17  O   UNL     1      -5.080  -0.285   2.571  0.00  0.00    -0.368 OA
ATOM     18  C   UNL     1      -4.622  -1.045   1.474  0.00  0.00    +0.211 C 
ATOM     19  C   UNL     1      -3.328  -0.254   1.355  0.00  0.00    +0.170 C 
ATOM     20  C   UNL     1      -1.540   0.905  -2.974  0.00  0.00    +0.023 C 
ATOM     21  C   UNL     1      -2.781   1.429  -3.772  0.00  0.00    +0.018 C 
ATOM     22  C   UNL     1      -0.421   0.747  -4.072  0.00  0.00    +0.018 C 
ENDROOT
BRANCH   3  23
ATOM     23  O   UNL     1      -2.159  -1.377  -3.318  0.00  0.00    -0.384 OA
ATOM     24  H   UNL     1      -2.134  -2.308  -2.974  0.00  0.00    +0.210 HD
ENDBRANCH   3  23
BRANCH  14  25
ATOM     25  O   UNL     1      -3.943   4.037   1.143  0.00  0.00    -0.391 OA
ATOM     26  H   UNL     1      -4.932   4.098   1.133  0.00  0.00    +0.210 HD
ENDBRANCH  14  25
BRANCH   2  27
ATOM     27  O   UNL     1      -3.333  -1.800  -0.854  0.00  0.00    -0.454 OA
BRANCH  27  28
ATOM     28  C   UNL     1      -4.279  -2.678  -1.404  0.00  0.00    +0.340 C 
ATOM     29  O   UNL     1      -4.962  -2.331  -2.409  0.00  0.00    -0.245 OA
BRANCH  28  30
ATOM     30  C   UNL     1      -4.486  -4.003  -0.785  0.00  0.00    +0.059 A 
ATOM     31  C   UNL     1      -3.636  -4.440   0.250  0.00  0.00    +0.015 A 
ATOM     32  C   UNL     1      -3.851  -5.673   0.868  0.00  0.00    +0.001 A 
ATOM     33  C   UNL     1      -4.909  -6.487   0.460  0.00  0.00    +0.000 A 
ATOM     34  C   UNL     1      -5.749  -6.070  -0.575  0.00  0.00    +0.001 A 
ATOM     35  C   UNL     1      -5.545  -4.835  -1.191  0.00  0.00    +0.015 A 
ENDBRANCH  28  30
ENDBRANCH  27  28
ENDBRANCH   2  27
BRANCH   5  36
ATOM     36  O   UNL     1       1.386  -0.400  -0.190  0.00  0.00    -0.455 OA
BRANCH  36  37
ATOM     37  C   UNL     1       2.306  -1.458  -0.248  0.00  0.00    +0.339 C 
ATOM     38  O   UNL     1       2.346  -2.221  -1.252  0.00  0.00    -0.248 OA
BRANCH  37  39
ATOM     39  C   UNL     1       3.293  -1.649   0.872  0.00  0.00    +0.247 C 
BRANCH  39  40
ATOM     40  O   UNL     1       2.602  -1.750   2.088  0.00  0.00    -0.379 OA
ATOM     41  H   UNL     1       2.172  -2.645   2.092  0.00  0.00    +0.211 HD
ENDBRANCH  39  40
BRANCH  39  42
ATOM     42  C   UNL     1       4.280  -0.462   0.942  0.00  0.00    +0.143 C 
BRANCH  42  43
ATOM     43  C   UNL     1       5.076  -0.337  -0.345  0.00  0.00    -0.024 A 
ATOM     44  C   UNL     1       6.146  -1.210  -0.615  0.00  0.00    +0.005 A 
ATOM     45  C   UNL     1       6.891  -1.075  -1.784  0.00  0.00    +0.000 A 
ATOM     46  C   UNL     1       6.567  -0.081  -2.713  0.00  0.00    +0.000 A 
ATOM     47  C   UNL     1       5.496   0.775  -2.468  0.00  0.00    +0.000 A 
ATOM     48  C   UNL     1       4.745   0.646  -1.293  0.00  0.00    +0.005 A 
ENDBRANCH  42  43
BRANCH  42  49
ATOM     49  N   UNL     1       5.195  -0.608   2.080  0.00  0.00    -0.301 N 
ATOM     50  C   UNL     1       6.130   0.430   2.430  0.00  0.00    +0.245 C 
ATOM     51  O   UNL     1       5.911   1.616   2.050  0.00  0.00    -0.270 OA
ATOM     52  H   UNL     1       5.191  -1.504   2.621  0.00  0.00    +0.150 HD
BRANCH  50  53
ATOM     53  C   UNL     1       7.341   0.139   3.237  0.00  0.00    +0.037 A 
ATOM     54  C   UNL     1       7.840  -1.172   3.357  0.00  0.00    +0.013 A 
ATOM     55  C   UNL     1       9.012  -1.421   4.085  0.00  0.00    +0.001 A 
ATOM     56  C   UNL     1       9.670  -0.378   4.729  0.00  0.00    +0.000 A 
ATOM     57  C   UNL     1       9.188   0.926   4.620  0.00  0.00    +0.001 A 
ATOM     58  C   UNL     1       8.029   1.187   3.879  0.00  0.00    +0.013 A 
ENDBRANCH  50  53
ENDBRANCH  42  49
ENDBRANCH  39  42
ENDBRANCH  37  39
ENDBRANCH  36  37
ENDBRANCH   5  36
BRANCH   9  59
ATOM     59  O   UNL     1      -1.567   4.081  -2.487  0.00  0.00    -0.449 OA
BRANCH  59  60
ATOM     60  C   UNL     1      -1.686   5.456  -2.272  0.00  0.00    +0.305 C 
ATOM     61  C   UNL     1      -1.679   6.384  -3.443  0.00  0.00    +0.136 C 
ATOM     62  O   UNL     1      -1.746   5.924  -1.097  0.00  0.00    -0.251 OA
ENDBRANCH  59  60
ENDBRANCH   9  59
BRANCH  19  63
ATOM     63  O   UNL     1      -2.166  -1.026   1.712  0.00  0.00    -0.453 OA
BRANCH  63  64
ATOM     64  C   UNL     1      -1.913  -1.682   2.929  0.00  0.00    +0.305 C 
ATOM     65  C   UNL     1      -0.522  -1.696   3.466  0.00  0.00    +0.136 C 
ATOM     66  O   UNL     1      -2.844  -2.209   3.603  0.00  0.00    -0.251 OA
ENDBRANCH  63  64
ENDBRANCH  19  63
TORSDOF 17
