REMARK  Name = 
REMARK  6 active torsions:
REMARK  status: ('A' for Active; 'I' for Inactive)
REMARK    1  A    between atoms: C_1  and  C_2
REMARK    2  A    between atoms: C_3  and  C_4
REMARK    3  A    between atoms: C_4  and  C_5
REMARK    4  A    between atoms: C_5  and  N_6
REMARK    5  A    between atoms: C_9  and  C_12
REMARK    6  A    between atoms: C_28  and  O_29
REMARK                            x       y       z     vdW  Elec       q    Type
REMARK                         _______ _______ _______ _____ _____    ______ ____
ROOT
ATOM      1  C   UNL     1      -0.268   2.359   0.163  0.00  0.00    +0.089 C 
ENDROOT
BRANCH   1   2
ATOM      2  N   UNL     1       0.540   1.121   0.088  0.00  0.00    -0.302 NA
ATOM      3  C   UNL     1       1.768   1.194   0.919  0.00  0.00    +0.085 C 
ATOM      4  C   UNL     1       2.996   1.719   0.151  0.00  0.00    +0.025 C 
ATOM      5  C   UNL     1       3.221   1.002  -1.204  0.00  0.00    +0.044 C 
ATOM      6  C   UNL     1       2.110  -0.007  -1.527  0.00  0.00    +0.025 C 
ATOM      7  C   UNL     1       0.750   0.666  -1.312  0.00  0.00    +0.085 C 
BRANCH   5   8
ATOM      8  C   UNL     1       4.590   0.373  -1.313  0.00  0.00    +0.094 A 
ATOM      9  N   UNL     1       5.503   0.743  -2.244  0.00  0.00    -0.082 NA
ATOM     10  O   UNL     1       6.570   0.010  -2.072  0.00  0.00    -0.354 OA
ATOM     11  C   UNL     1       6.394  -0.818  -1.074  0.00  0.00    +0.170 A 
ATOM     12  C   UNL     1       5.146  -0.636  -0.546  0.00  0.00    +0.045 A 
ATOM     13  C   UNL     1       4.691  -1.391   0.535  0.00  0.00    +0.016 A 
ATOM     14  C   UNL     1       5.563  -2.356   1.072  0.00  0.00    +0.039 A 
ATOM     15  C   UNL     1       6.854  -2.542   0.524  0.00  0.00    +0.127 A 
ATOM     16  F   UNL     1       7.683  -3.475   1.052  0.00  0.00    -0.205 F 
ATOM     17  C   UNL     1       7.282  -1.762  -0.567  0.00  0.00    +0.088 A 
ENDBRANCH   5   8
ENDBRANCH   1   2
BRANCH   1  18
ATOM     18  C   UNL     1      -1.250   2.298   1.343  0.00  0.00    +0.058 C 
BRANCH  18  21
ATOM     19  C   UNL     1      -1.186  -0.337   2.845  0.00  0.00    +0.066 C 
ATOM     20  C   UNL     1      -2.236  -0.023   1.820  0.00  0.00    +0.049 A 
ATOM     21  C   UNL     1      -2.298   1.214   1.147  0.00  0.00    +0.039 A 
ATOM     22  C   UNL     1      -3.361   1.416   0.242  0.00  0.00    +0.258 A 
ATOM     23  O   UNL     1      -3.444   2.515  -0.374  0.00  0.00    -0.267 OA
ATOM     24  N   UNL     1      -4.299   0.436   0.025  0.00  0.00    -0.294 N 
ATOM     25  C   UNL     1      -5.355   0.677  -0.983  0.00  0.00    +0.127 C 
ATOM     26  C   UNL     1      -6.538  -0.281  -0.850  0.00  0.00    +0.025 C 
ATOM     27  C   UNL     1      -6.030  -1.711  -0.762  0.00  0.00    +0.041 C 
ATOM     28  C   UNL     1      -5.188  -1.883   0.504  0.00  0.00    +0.180 C 
ATOM     29  C   UNL     1      -4.173  -0.775   0.665  0.00  0.00    +0.141 A 
ATOM     30  N   UNL     1      -3.172  -0.967   1.560  0.00  0.00    -0.236 NA
BRANCH  28  31
ATOM     31  O   UNL     1      -4.525  -3.121   0.462  0.00  0.00    -0.384 OA
ATOM     32  H   UNL     1      -5.206  -3.817   0.654  0.00  0.00    +0.210 HD
ENDBRANCH  28  31
ENDBRANCH  18  21
ENDBRANCH   1  18
TORSDOF 5
