REMARK  Name = 
REMARK  1 active torsions:
REMARK  status: ('A' for Active; 'I' for Inactive)
REMARK    1  A    between atoms: N_13  and  C_15
REMARK                            x       y       z     vdW  Elec       q    Type
REMARK                         _______ _______ _______ _____ _____    ______ ____
ROOT
ATOM      1  C   UNL     1       1.347   0.079   0.877  0.00  0.00    +0.037 C 
ATOM      2  C   UNL     1       1.930   0.524   2.229  0.00  0.00    +0.010 C 
ATOM      3  C   UNL     1       3.230  -0.228   2.513  0.00  0.00    +0.005 C 
ATOM      4  C   UNL     1       4.291   0.121   1.466  0.00  0.00    +0.035 C 
ATOM      5  C   UNL     1       3.765   0.042   0.051  0.00  0.00    -0.043 A 
ATOM      6  C   UNL     1       2.380   0.125  -0.232  0.00  0.00    -0.028 A 
ATOM      7  C   UNL     1       1.938   0.118  -1.570  0.00  0.00    +0.041 A 
ATOM      8  C   UNL     1       2.876   0.046  -2.614  0.00  0.00    +0.013 A 
ATOM      9  C   UNL     1       4.240  -0.015  -2.331  0.00  0.00    +0.001 A 
ATOM     10  C   UNL     1       4.684  -0.009  -1.008  0.00  0.00    +0.004 A 
ATOM     11  C   UNL     1       0.488   0.196  -1.853  0.00  0.00    +0.247 C 
ATOM     12  O   UNL     1       0.068  -0.027  -3.023  0.00  0.00    -0.270 OA
ATOM     13  N   UNL     1      -0.441   0.511  -0.790  0.00  0.00    -0.292 N 
ATOM     14  C   UNL     1       0.123   0.934   0.507  0.00  0.00    +0.116 C 
ENDROOT
BRANCH  13  15
ATOM     15  C   UNL     1      -1.899   0.395  -1.044  0.00  0.00    +0.093 C 
ATOM     16  C   UNL     1      -2.797   1.400  -0.250  0.00  0.00    +0.107 C 
ATOM     17  N   UNL     1      -3.900   0.689   0.445  0.00  0.00    -0.301 NA
ATOM     18  C   UNL     1      -3.331  -0.270   1.423  0.00  0.00    +0.085 C 
ATOM     19  C   UNL     1      -2.444  -1.331   0.723  0.00  0.00    +0.021 C 
ATOM     20  C   UNL     1      -2.410  -1.046  -0.792  0.00  0.00    +0.013 C 
ATOM     21  C   UNL     1      -3.866  -1.116  -1.298  0.00  0.00    +0.021 C 
ATOM     22  C   UNL     1      -4.715  -0.053  -0.550  0.00  0.00    +0.085 C 
ENDBRANCH  13  15
TORSDOF 1
