REMARK  Name = 
REMARK  10 active torsions:
REMARK  status: ('A' for Active; 'I' for Inactive)
REMARK    1  A    between atoms: N_1  and  C_2
REMARK    2  A    between atoms: C_2  and  C_3
REMARK    3  A    between atoms: C_3  and  C_4
REMARK    4  A    between atoms: C_4  and  O_5
REMARK    5  A    between atoms: C_4  and  P_6
REMARK    6  A    between atoms: C_4  and  P_10
REMARK    7  A    between atoms: P_6  and  O_7
REMARK    8  A    between atoms: P_6  and  O_8
REMARK    9  A    between atoms: P_10  and  O_11
REMARK   10  A    between atoms: P_10  and  O_12
REMARK                            x       y       z     vdW  Elec       q    Type
REMARK                         _______ _______ _______ _____ _____    ______ ____
ROOT
ATOM      1  C   UNL     1      -0.440   0.144  -0.809  0.00  0.00    +0.268 C 
ENDROOT
BRANCH   1   2
ATOM      2  O   UNL     1      -0.971   0.247  -2.107  0.00  0.00    -0.367 OA
ATOM      3  H   UNL     1      -0.628  -0.517  -2.642  0.00  0.00    +0.212 HD
ENDBRANCH   1   2
BRANCH   1   4
ATOM      4  P   UNL     1      -0.956  -1.469  -0.091  0.00  0.00    +0.371 P 
ATOM      5  O   UNL     1      -0.253  -2.596  -0.815  0.00  0.00    -0.255 OA
BRANCH   4   6
ATOM      6  O   UNL     1      -0.578  -1.544   1.557  0.00  0.00    -0.322 OA
ATOM      7  H   UNL     1      -0.943  -2.412   1.861  0.00  0.00    +0.220 HD
ENDBRANCH   4   6
BRANCH   4   8
ATOM      8  O   UNL     1      -2.629  -1.653  -0.272  0.00  0.00    -0.322 OA
ATOM      9  H   UNL     1      -2.779  -1.693  -1.250  0.00  0.00    +0.220 HD
ENDBRANCH   4   8
ENDBRANCH   1   4
BRANCH   1  10
ATOM     10  P   UNL     1      -1.185   1.504   0.170  0.00  0.00    +0.371 P 
ATOM     11  O   UNL     1      -2.675   1.535  -0.088  0.00  0.00    -0.255 OA
BRANCH  10  12
ATOM     12  O   UNL     1      -0.925   1.289   1.829  0.00  0.00    -0.322 OA
ATOM     13  H   UNL     1      -1.356   2.071   2.258  0.00  0.00    +0.220 HD
ENDBRANCH  10  12
BRANCH  10  14
ATOM     14  O   UNL     1      -0.512   2.979  -0.317  0.00  0.00    -0.322 OA
ATOM     15  H   UNL     1      -0.957   3.661   0.248  0.00  0.00    +0.220 HD
ENDBRANCH  10  14
ENDBRANCH   1  10
BRANCH   1  16
ATOM     16  C   UNL     1       1.108   0.292  -0.902  0.00  0.00    +0.075 C 
BRANCH  16  17
ATOM     17  C   UNL     1       1.908   0.152   0.408  0.00  0.00    +0.081 C 
BRANCH  17  18
ATOM     18  N   UNL     1       2.171  -1.250   0.719  0.00  0.00    -0.330 NA
ATOM     19  H   UNL     1       2.646  -1.288   1.649  0.00  0.00    +0.118 HD
ATOM     20  H   UNL     1       2.856  -1.620   0.020  0.00  0.00    +0.118 HD
ENDBRANCH  17  18
ENDBRANCH  16  17
ENDBRANCH   1  16
TORSDOF 10
