REMARK  Name = 
REMARK  12 active torsions:
REMARK  status: ('A' for Active; 'I' for Inactive)
REMARK    1  A    between atoms: C_3  and  N_35
REMARK    2  A    between atoms: C_4  and  O_5
REMARK    3  A    between atoms: O_5  and  C_6
REMARK    4  A    between atoms: C_6  and  C_7
REMARK    5  A    between atoms: C_9  and  C_10
REMARK    6  A    between atoms: C_19  and  O_20
REMARK    7  A    between atoms: O_20  and  C_21
REMARK    8  A    between atoms: C_21  and  C_22
REMARK    9  A    between atoms: C_24  and  N_28
REMARK   10  A    between atoms: C_26  and  C_27
REMARK   11  A    between atoms: N_28  and  C_29
REMARK   12  A    between atoms: N_35  and  C_36
REMARK                            x       y       z     vdW  Elec       q    Type
REMARK                         _______ _______ _______ _____ _____    ______ ____
ROOT
ATOM      1  C   UNL     1      -2.094  -0.030   0.405  0.00  0.00    +0.000 C 
ATOM      2  C   UNL     1      -3.311  -0.612   1.102  0.00  0.00    -0.007 C 
ATOM      3  C   UNL     1      -4.487   0.170   0.454  0.00  0.00    -0.023 C 
ATOM      4  C   UNL     1      -3.938   0.686  -0.937  0.00  0.00    +0.170 C 
ATOM      5  C   UNL     1      -2.508   0.086  -1.069  0.00  0.00    +0.007 C 
ATOM      6  C   UNL     1      -2.574  -1.285  -1.817  0.00  0.00    +0.015 C 
ATOM      7  C   UNL     1      -1.481   1.006  -1.773  0.00  0.00    +0.011 C 
ATOM      8  C   UNL     1      -0.030   0.482  -1.610  0.00  0.00    +0.005 C 
ATOM      9  C   UNL     1       0.354   0.187  -0.126  0.00  0.00    -0.001 C 
ATOM     10  C   UNL     1      -0.723  -0.712   0.587  0.00  0.00    -0.004 C 
ATOM     11  C   UNL     1      -0.384  -0.907   2.076  0.00  0.00    +0.004 C 
ATOM     12  C   UNL     1       1.037  -1.455   2.252  0.00  0.00    +0.004 C 
ATOM     13  C   UNL     1       2.051  -0.496   1.605  0.00  0.00    -0.001 C 
ATOM     14  C   UNL     1       3.499  -0.849   1.972  0.00  0.00    +0.047 C 
ATOM     15  C   UNL     1       4.467   0.268   1.548  0.00  0.00    +0.164 C 
ATOM     16  C   UNL     1       4.371   0.636   0.018  0.00  0.00    -0.024 C 
ATOM     17  C   UNL     1       2.863   0.695  -0.476  0.00  0.00    -0.004 C 
ATOM     18  C   UNL     1       1.830  -0.357   0.067  0.00  0.00    -0.027 C 
ATOM     19  C   UNL     1       1.993  -1.709  -0.695  0.00  0.00    +0.011 C 
ENDROOT
BRANCH  16  20
ATOM     20  N   UNL     1       5.424  -0.001  -0.897  0.00  0.00    +0.382 N 
ATOM     21  C   UNL     1       5.105   0.309  -2.322  0.00  0.00    -0.091 C 
ATOM     22  C   UNL     1       5.508  -1.484  -0.719  0.00  0.00    -0.075 C 
ATOM     23  C   UNL     1       6.668  -2.144  -1.486  0.00  0.00    -0.018 C 
ATOM     24  C   UNL     1       8.000  -1.530  -1.077  0.00  0.00    -0.004 C 
ATOM     25  C   UNL     1       7.974  -0.022  -1.287  0.00  0.00    -0.018 C 
ATOM     26  C   UNL     1       6.761   0.622  -0.581  0.00  0.00    -0.075 C 
ENDBRANCH  16  20
BRANCH   3  27
ATOM     27  N   UNL     1      -5.843  -0.516   0.524  0.00  0.00    +0.382 N 
ATOM     28  C   UNL     1      -5.881  -1.767  -0.286  0.00  0.00    -0.091 C 
ATOM     29  C   UNL     1      -6.949   0.378   0.046  0.00  0.00    -0.075 C 
ATOM     30  C   UNL     1      -7.188   1.611   0.938  0.00  0.00    -0.018 C 
ATOM     31  C   UNL     1      -7.452   1.200   2.385  0.00  0.00    -0.004 C 
ATOM     32  C   UNL     1      -6.361   0.263   2.898  0.00  0.00    -0.018 C 
ATOM     33  C   UNL     1      -6.162  -0.923   1.934  0.00  0.00    -0.075 C 
ENDBRANCH   3  27
BRANCH   4  34
ATOM     34  O   UNL     1      -4.760   0.370  -2.060  0.00  0.00    -0.463 OA
BRANCH  34  35
ATOM     35  C   UNL     1      -4.781   1.108  -3.248  0.00  0.00    +0.304 C 
ATOM     36  C   UNL     1      -5.612   0.628  -4.389  0.00  0.00    +0.136 C 
ATOM     37  O   UNL     1      -4.088   2.153  -3.377  0.00  0.00    -0.251 OA
ENDBRANCH  34  35
ENDBRANCH   4  34
BRANCH  15  38
ATOM     38  O   UNL     1       4.171   1.421   2.346  0.00  0.00    -0.463 OA
BRANCH  38  39
ATOM     39  C   UNL     1       5.072   2.463   2.594  0.00  0.00    +0.304 C 
ATOM     40  C   UNL     1       4.622   3.652   3.371  0.00  0.00    +0.136 C 
ATOM     41  O   UNL     1       6.254   2.415   2.162  0.00  0.00    -0.251 OA
ENDBRANCH  38  39
ENDBRANCH  15  38
TORSDOF 6
