REMARK  Name = 
REMARK  9 active torsions:
REMARK  status: ('A' for Active; 'I' for Inactive)
REMARK    1  A    between atoms: C_1  and  O_2
REMARK    2  A    between atoms: O_2  and  C_3
REMARK    3  A    between atoms: C_4  and  O_5
REMARK    4  A    between atoms: O_5  and  C_6
REMARK    5  A    between atoms: C_7  and  C_8
REMARK    6  A    between atoms: C_8  and  S_9
REMARK    7  A    between atoms: S_9  and  C_11
REMARK    8  A    between atoms: C_17  and  O_18
REMARK    9  A    between atoms: O_18  and  C_19
REMARK                            x       y       z     vdW  Elec       q    Type
REMARK                         _______ _______ _______ _____ _____    ______ ____
ROOT
ATOM      1  C   UNL     1       1.064  -1.254  -1.193  0.00  0.00    +0.198 A 
ATOM      2  N   UNL     1       1.114  -1.912  -0.005  0.00  0.00    -0.220 NA
ATOM      3  C   UNL     1       2.146  -1.313   0.615  0.00  0.00    +0.090 A 
ATOM      4  C   UNL     1       2.678  -0.339  -0.174  0.00  0.00    +0.070 A 
ATOM      5  N   UNL     1       2.003  -0.288  -1.328  0.00  0.00    -0.331 N 
ATOM      6  C   UNL     1       3.751   0.448   0.235  0.00  0.00    +0.073 A 
ATOM      7  C   UNL     1       4.293   0.207   1.523  0.00  0.00    +0.129 A 
ATOM      8  C   UNL     1       3.735  -0.810   2.336  0.00  0.00    +0.048 A 
ATOM      9  C   UNL     1       2.647  -1.582   1.885  0.00  0.00    +0.033 A 
ATOM     10  H   UNL     1       2.153   0.357  -2.135  0.00  0.00    +0.168 HD
ENDROOT
BRANCH   1  11
ATOM     11  S   UNL     1      -0.174  -1.588  -2.421  0.00  0.00    +0.095 S 
ATOM     12  O   UNL     1       0.623  -1.778  -3.704  0.00  0.00    -0.249 OA
BRANCH  11  13
ATOM     13  C   UNL     1      -1.037  -0.017  -2.646  0.00  0.00    +0.171 C 
BRANCH  13  16
ATOM     14  C   UNL     1      -3.234   0.337   0.464  0.00  0.00    +0.165 A 
ATOM     15  C   UNL     1      -2.775  -0.116  -0.800  0.00  0.00    +0.184 A 
ATOM     16  C   UNL     1      -1.602   0.455  -1.337  0.00  0.00    +0.099 A 
ATOM     17  N   UNL     1      -0.922   1.404  -0.639  0.00  0.00    -0.255 NA
ATOM     18  C   UNL     1      -1.342   1.848   0.570  0.00  0.00    +0.115 A 
ATOM     19  C   UNL     1      -2.500   1.329   1.141  0.00  0.00    +0.069 A 
BRANCH  14  21
ATOM     20  C   UNL     1      -4.953   0.174   2.283  0.00  0.00    +0.277 C 
ATOM     21  O   UNL     1      -4.404  -0.201   1.024  0.00  0.00    -0.491 OA
ENDBRANCH  14  21
BRANCH  15  22
ATOM     22  O   UNL     1      -3.421  -1.113  -1.556  0.00  0.00    -0.490 OA
ATOM     23  C   UNL     1      -4.592  -1.832  -1.187  0.00  0.00    +0.277 C 
ENDBRANCH  15  22
ENDBRANCH  13  16
ENDBRANCH  11  13
ENDBRANCH   1  11
BRANCH   7  24
ATOM     24  O   UNL     1       5.375   0.942   2.031  0.00  0.00    -0.434 OA
BRANCH  24  25
ATOM     25  C   UNL     1       6.021   2.010   1.346  0.00  0.00    +0.541 C 
ATOM     26  F   UNL     1       7.097   2.443   2.096  0.00  0.00    -0.166 F 
ATOM     27  F   UNL     1       5.139   3.063   1.175  0.00  0.00    -0.166 F 
ENDBRANCH  24  25
ENDBRANCH   7  24
TORSDOF 7
