REMARK  Name = 
REMARK  10 active torsions:
REMARK  status: ('A' for Active; 'I' for Inactive)
REMARK    1  A    between atoms: C_1  and  O_2
REMARK    2  A    between atoms: O_2  and  C_3
REMARK    3  A    between atoms: C_4  and  O_5
REMARK    4  A    between atoms: O_5  and  C_6
REMARK    5  A    between atoms: C_8  and  C_9
REMARK    6  A    between atoms: C_9  and  C_10
REMARK    7  A    between atoms: C_16  and  O_17
REMARK    8  A    between atoms: O_17  and  C_18
REMARK    9  A    between atoms: C_19  and  O_20
REMARK   10  A    between atoms: O_20  and  C_21
REMARK                            x       y       z     vdW  Elec       q    Type
REMARK                         _______ _______ _______ _____ _____    ______ ____
ROOT
ATOM      1  C   UNL     1       0.936   2.295   0.064  0.00  0.00    +0.053 A 
ATOM      2  N   UNL     1       1.284   3.324   0.885  0.00  0.00    -0.259 NA
ATOM      3  C   UNL     1       2.380   3.283   1.684  0.00  0.00    +0.111 A 
ATOM      4  C   UNL     1       3.198   2.157   1.692  0.00  0.00    +0.028 A 
ATOM      5  C   UNL     1       2.881   1.068   0.871  0.00  0.00    -0.011 A 
ATOM      6  C   UNL     1       3.693  -0.075   0.876  0.00  0.00    +0.058 A 
ATOM      7  C   UNL     1       3.381  -1.178   0.062  0.00  0.00    +0.162 A 
ATOM      8  C   UNL     1       2.250  -1.134  -0.763  0.00  0.00    +0.162 A 
ATOM      9  C   UNL     1       1.440   0.017  -0.780  0.00  0.00    +0.059 A 
ATOM     10  C   UNL     1       1.738   1.124   0.038  0.00  0.00    +0.007 A 
ENDROOT
BRANCH   7  11
ATOM     11  O   UNL     1       4.170  -2.340   0.048  0.00  0.00    -0.491 OA
ATOM     12  C   UNL     1       5.343  -2.531   0.832  0.00  0.00    +0.277 C 
ENDBRANCH   7  11
BRANCH   8  13
ATOM     13  O   UNL     1       1.961  -2.258  -1.555  0.00  0.00    -0.491 OA
ATOM     14  C   UNL     1       0.819  -2.383  -2.396  0.00  0.00    +0.277 C 
ENDBRANCH   8  13
BRANCH   1  15
ATOM     15  C   UNL     1      -0.323   2.452  -0.756  0.00  0.00    +0.091 C 
BRANCH  15  19
ATOM     16  C   UNL     1      -3.570   0.074   0.836  0.00  0.00    +0.161 A 
ATOM     17  C   UNL     1      -3.152  -0.114  -0.490  0.00  0.00    +0.162 A 
ATOM     18  C   UNL     1      -2.098   0.666  -1.005  0.00  0.00    +0.053 A 
ATOM     19  C   UNL     1      -1.453   1.619  -0.201  0.00  0.00    -0.038 A 
ATOM     20  C   UNL     1      -1.891   1.811   1.117  0.00  0.00    +0.008 A 
ATOM     21  C   UNL     1      -2.935   1.044   1.635  0.00  0.00    +0.049 A 
BRANCH  16  23
ATOM     22  C   UNL     1      -5.147  -0.640   2.644  0.00  0.00    +0.277 C 
ATOM     23  O   UNL     1      -4.621  -0.720   1.323  0.00  0.00    -0.491 OA
ENDBRANCH  16  23
BRANCH  17  24
ATOM     24  O   UNL     1      -3.808  -1.084  -1.264  0.00  0.00    -0.491 OA
ATOM     25  C   UNL     1      -3.497  -1.379  -2.623  0.00  0.00    +0.277 C 
ENDBRANCH  17  24
ENDBRANCH  15  19
ENDBRANCH   1  15
TORSDOF 6
