REMARK  Name = 
REMARK  4 active torsions:
REMARK  status: ('A' for Active; 'I' for Inactive)
REMARK    1  A    between atoms: C_1  and  C_2
REMARK    2  A    between atoms: C_2  and  C_3
REMARK    3  A    between atoms: C_3  and  C_4
REMARK    4  A    between atoms: N_8  and  C_9
REMARK                            x       y       z     vdW  Elec       q    Type
REMARK                         _______ _______ _______ _____ _____    ______ ____
ROOT
ATOM      1  C   UNL     1      -0.443  -0.206  -0.228  0.00  0.00    +0.188 C 
ATOM      2  C   UNL     1      -0.787  -1.233  -1.316  0.00  0.00    +0.066 C 
ATOM      3  O   UNL     1      -0.068   1.036  -0.829  0.00  0.00    -0.434 OA
ATOM      4  C   UNL     1       1.245   1.344  -0.501  0.00  0.00    +0.410 C 
ATOM      5  O   UNL     1       1.848   2.359  -0.939  0.00  0.00    -0.226 OA
ATOM      6  N   UNL     1       1.841   0.384   0.354  0.00  0.00    -0.207 N 
ATOM      7  C   UNL     1       3.271   0.158   0.515  0.00  0.00    +0.144 C 
ATOM      8  C   UNL     1       0.824  -0.601   0.486  0.00  0.00    +0.268 C 
ATOM      9  O   UNL     1       0.987  -1.682   1.112  0.00  0.00    -0.271 OA
ENDROOT
BRANCH   1  11
ATOM     10  C   UNL     1      -2.848   0.605   0.162  0.00  0.00    +0.008 C 
ATOM     11  C   UNL     1      -1.587   0.006   0.788  0.00  0.00    +0.054 C 
ENDBRANCH   1  11
TORSDOF 1
