REMARK  Name = 
REMARK  8 active torsions:
REMARK  status: ('A' for Active; 'I' for Inactive)
REMARK    1  A    between atoms: C_3  and  C_4
REMARK    2  A    between atoms: C_5  and  O_6
REMARK    3  A    between atoms: C_5  and  C_7
REMARK    4  A    between atoms: C_7  and  C_9
REMARK    5  A    between atoms: C_9  and  O_10
REMARK    6  A    between atoms: C_11  and  C_12
REMARK    7  A    between atoms: C_14  and  O_15
REMARK    8  A    between atoms: C_27  and  C_28
REMARK                            x       y       z     vdW  Elec       q    Type
REMARK                         _______ _______ _______ _____ _____    ______ ____
ROOT
ATOM      1  C   UNL     1       0.670  -0.606   0.468  0.00  0.00    +0.002 C 
ATOM      2  C   UNL     1       1.674  -0.885   1.579  0.00  0.00    +0.011 C 
ATOM      3  C   UNL     1       3.059  -0.782   0.892  0.00  0.00    +0.026 C 
ATOM      4  C   UNL     1       3.847  -2.096   1.011  0.00  0.00    +0.011 C 
ATOM      5  C   UNL     1       2.792  -0.314  -0.589  0.00  0.00    +0.134 C 
ATOM      6  C   UNL     1       1.388   0.371  -0.474  0.00  0.00    +0.009 C 
ATOM      7  C   UNL     1       1.548   1.807   0.136  0.00  0.00    +0.015 C 
ATOM      8  C   UNL     1       0.571   0.440  -1.794  0.00  0.00    +0.041 C 
ATOM      9  C   UNL     1      -0.916   0.832  -1.564  0.00  0.00    +0.120 C 
ATOM     10  C   UNL     1      -1.615  -0.041  -0.460  0.00  0.00    +0.035 C 
ATOM     11  C   UNL     1      -0.760  -0.158   0.852  0.00  0.00    +0.002 C 
ATOM     12  C   UNL     1      -1.391  -1.182   1.821  0.00  0.00    +0.045 C 
ATOM     13  C   UNL     1      -2.835  -0.821   2.161  0.00  0.00    +0.193 C 
ATOM     14  F   UNL     1      -3.346  -1.789   3.012  0.00  0.00    -0.241 F 
ATOM     15  C   UNL     1      -3.639  -0.693   0.885  0.00  0.00    -0.023 C 
ATOM     16  C   UNL     1      -4.762  -1.414   0.713  0.00  0.00    +0.053 C 
ATOM     17  C   UNL     1      -5.518  -1.346  -0.537  0.00  0.00    +0.179 C 
ATOM     18  O   UNL     1      -6.577  -2.013  -0.674  0.00  0.00    -0.288 OA
ATOM     19  C   UNL     1      -5.029  -0.513  -1.630  0.00  0.00    +0.047 C 
ATOM     20  C   UNL     1      -3.926   0.220  -1.482  0.00  0.00    -0.012 C 
ATOM     21  C   UNL     1      -3.132   0.302  -0.176  0.00  0.00    +0.016 C 
ATOM     22  C   UNL     1      -3.346   1.730   0.381  0.00  0.00    +0.020 C 
ENDROOT
BRANCH   5  23
ATOM     23  O   UNL     1       2.677  -1.443  -1.433  0.00  0.00    -0.380 OA
ATOM     24  H   UNL     1       3.588  -1.784  -1.632  0.00  0.00    +0.211 HD
ENDBRANCH   5  23
BRANCH   5  25
ATOM     25  C   UNL     1       3.849   0.630  -1.183  0.00  0.00    +0.190 C 
ATOM     26  O   UNL     1       3.702   1.008  -2.337  0.00  0.00    -0.292 OA
BRANCH  25  27
ATOM     27  C   UNL     1       5.059   1.106  -0.411  0.00  0.00    +0.233 C 
BRANCH  27  28
ATOM     28  O   UNL     1       5.940   1.819  -1.238  0.00  0.00    -0.387 OA
ATOM     29  H   UNL     1       5.561   2.732  -1.338  0.00  0.00    +0.210 HD
ENDBRANCH  27  28
ENDBRANCH  25  27
ENDBRANCH   5  25
BRANCH   9  30
ATOM     30  O   UNL     1      -1.018   2.200  -1.272  0.00  0.00    -0.391 OA
ATOM     31  H   UNL     1      -0.851   2.692  -2.118  0.00  0.00    +0.210 HD
ENDBRANCH   9  30
TORSDOF 5
