REMARK  Name = 
REMARK  5 active torsions:
REMARK  status: ('A' for Active; 'I' for Inactive)
REMARK    1  A    between atoms: C_1  and  N_2
REMARK    2  A    between atoms: N_2  and  C_3
REMARK    3  A    between atoms: N_2  and  C_6
REMARK    4  A    between atoms: C_3  and  C_4
REMARK    5  A    between atoms: C_6  and  C_7
REMARK                            x       y       z     vdW  Elec       q    Type
REMARK                         _______ _______ _______ _____ _____    ______ ____
ROOT
ATOM      1  C   UNL     1      -0.169  -1.252   0.404  0.00  0.00    +0.120 C 
ENDROOT
BRANCH   1   2
ATOM      2  C   UNL     1       1.096  -0.479   0.137  0.00  0.00    -0.033 A 
ATOM      3  C   UNL     1       1.595  -0.380  -1.173  0.00  0.00    +0.005 A 
ATOM      4  C   UNL     1       2.764   0.344  -1.429  0.00  0.00    +0.000 A 
ATOM      5  C   UNL     1       3.441   0.975  -0.381  0.00  0.00    +0.000 A 
ATOM      6  C   UNL     1       2.950   0.881   0.925  0.00  0.00    +0.000 A 
ATOM      7  C   UNL     1       1.782   0.158   1.185  0.00  0.00    +0.005 A 
ENDBRANCH   1   2
BRANCH   1   9
ATOM      8  C   UNL     1      -2.420  -1.574  -0.408  0.00  0.00    +0.106 C 
ATOM      9  N   UNL     1      -1.321  -0.602  -0.255  0.00  0.00    -0.290 NA
BRANCH   9  10
ATOM     10  C   UNL     1      -1.776   0.573   0.519  0.00  0.00    +0.173 C 
BRANCH  10  11
ATOM     11  C   UNL     1      -2.575   1.464  -0.332  0.00  0.00    -0.090 C 
ATOM     12  C   UNL     1      -3.231   2.195  -1.031  0.00  0.00    +0.005 C 
ENDBRANCH  10  11
ENDBRANCH   9  10
ENDBRANCH   1   9
TORSDOF 4
