REMARK  Name = 
REMARK  13 active torsions:
REMARK  status: ('A' for Active; 'I' for Inactive)
REMARK    1  A    between atoms: C_4  and  C_5
REMARK    2  A    between atoms: C_6  and  C_21
REMARK    3  A    between atoms: C_11  and  C_12
REMARK    4  A    between atoms: C_15  and  O_16
REMARK    5  A    between atoms: C_18  and  O_19
REMARK    6  A    between atoms: C_21  and  C_22
REMARK    7  A    between atoms: C_21  and  C_23
REMARK    8  A    between atoms: C_24  and  C_25
REMARK    9  A    between atoms: C_25  and  C_26
REMARK   10  A    between atoms: C_25  and  C_27
REMARK   11  A    between atoms: C_27  and  O_28
REMARK   12  A    between atoms: C_27  and  C_29
REMARK   13  A    between atoms: C_27  and  C_30
REMARK                            x       y       z     vdW  Elec       q    Type
REMARK                         _______ _______ _______ _____ _____    ______ ____
ROOT
ATOM      1  C   UNL     1       2.339  -0.979  -2.534  0.00  0.00    +0.031 C 
ATOM      2  C   UNL     1       1.159  -1.020  -3.531  0.00  0.00    +0.005 C 
ATOM      3  C   UNL     1      -0.191  -1.475  -2.915  0.00  0.00    +0.008 C 
ATOM      4  C   UNL     1      -0.351  -1.130  -1.397  0.00  0.00    -0.022 C 
ATOM      5  C   UNL     1       0.044  -2.374  -0.532  0.00  0.00    +0.012 C 
ATOM      6  C   UNL     1      -1.757  -0.593  -0.987  0.00  0.00    +0.002 C 
ATOM      7  C   UNL     1      -1.479   0.259   0.281  0.00  0.00    +0.005 C 
ATOM      8  C   UNL     1       0.022   0.577   0.295  0.00  0.00    +0.009 C 
ATOM      9  C   UNL     1       0.524   0.094  -1.063  0.00  0.00    +0.021 C 
ATOM     10  C   UNL     1       1.992  -0.226  -1.258  0.00  0.00    -0.066 C 
ATOM     11  C   UNL     1       2.938   0.221  -0.410  0.00  0.00    -0.001 C 
ENDROOT
BRANCH  11  12
ATOM     12  C   UNL     1       4.374  -0.124  -0.546  0.00  0.00    -0.001 C 
ATOM     13  C   UNL     1       5.355   0.468   0.166  0.00  0.00    -0.065 C 
ATOM     14  C   UNL     1       5.091   1.640   1.085  0.00  0.00    +0.062 C 
ATOM     15  C   UNL     1       6.399   2.322   1.515  0.00  0.00    +0.121 C 
ATOM     16  C   UNL     1       7.399   1.313   2.122  0.00  0.00    +0.063 C 
ATOM     17  C   UNL     1       7.495  -0.031   1.352  0.00  0.00    +0.121 C 
ATOM     18  C   UNL     1       6.784   0.006  -0.013  0.00  0.00    +0.062 C 
BRANCH  15  19
ATOM     19  O   UNL     1       6.112   3.337   2.444  0.00  0.00    -0.391 OA
ATOM     20  H   UNL     1       6.938   3.878   2.542  0.00  0.00    +0.210 HD
ENDBRANCH  15  19
BRANCH  17  21
ATOM     21  O   UNL     1       8.847  -0.372   1.175  0.00  0.00    -0.391 OA
ATOM     22  H   UNL     1       8.868  -1.325   0.889  0.00  0.00    +0.210 HD
ENDBRANCH  17  21
ENDBRANCH  11  12
BRANCH   6  23
ATOM     23  C   UNL     1      -2.894  -1.644  -0.767  0.00  0.00    +0.012 C 
ATOM     24  C   UNL     1      -3.217  -2.433  -2.045  0.00  0.00    +0.012 C 
BRANCH  23  25
ATOM     25  C   UNL     1      -4.162  -0.951  -0.314  0.00  0.00    -0.027 C 
ATOM     26  C   UNL     1      -4.510  -0.893   0.983  0.00  0.00    -0.025 C 
BRANCH  26  27
ATOM     27  C   UNL     1      -5.750  -0.183   1.495  0.00  0.00    +0.039 C 
ATOM     28  C   UNL     1      -7.018  -0.711   0.794  0.00  0.00    +0.015 C 
BRANCH  27  29
ATOM     29  C   UNL     1      -5.601   1.386   1.518  0.00  0.00    +0.066 C 
ATOM     30  C   UNL     1      -6.644   2.012   2.476  0.00  0.00    +0.041 C 
ATOM     31  C   UNL     1      -5.777   2.032   0.127  0.00  0.00    +0.041 C 
BRANCH  29  32
ATOM     32  O   UNL     1      -4.310   1.737   1.976  0.00  0.00    -0.389 OA
ATOM     33  H   UNL     1      -4.180   1.319   2.869  0.00  0.00    +0.210 HD
ENDBRANCH  29  32
ENDBRANCH  27  29
ENDBRANCH  26  27
ENDBRANCH  23  25
ENDBRANCH   6  23
TORSDOF 8
