REMARK  Name = 
REMARK  4 active torsions:
REMARK  status: ('A' for Active; 'I' for Inactive)
REMARK    1  A    between atoms: C_5  and  C_8
REMARK    2  A    between atoms: C_13  and  C_14
REMARK    3  A    between atoms: C_14  and  O_15
REMARK    4  A    between atoms: O_15  and  C_16
REMARK                            x       y       z     vdW  Elec       q    Type
REMARK                         _______ _______ _______ _____ _____    ______ ____
ROOT
ATOM      1  C   UNL     1      -1.630  -0.962   0.747  0.00  0.00    +0.028 C 
ATOM      2  C   UNL     1      -2.520  -1.751   1.744  0.00  0.00    +0.023 C 
ATOM      3  C   UNL     1      -2.825  -0.948   3.015  0.00  0.00    +0.081 C 
ATOM      4  N   UNL     1      -1.595  -0.538   3.716  0.00  0.00    -0.316 NA
ATOM      5  C   UNL     1      -0.493  -0.094   2.837  0.00  0.00    +0.088 C 
ATOM      6  C   UNL     1      -0.957   0.271   1.411  0.00  0.00    +0.048 C 
ATOM      7  H   UNL     1      -1.845   0.245   4.365  0.00  0.00    +0.122 HD
ENDROOT
BRANCH   1  12
ATOM      8  F   UNL     1      -4.431   0.565  -3.963  0.00  0.00    -0.205 F 
ATOM      9  C   UNL     1      -3.769   0.199  -2.838  0.00  0.00    +0.123 A 
ATOM     10  C   UNL     1      -4.238   0.606  -1.587  0.00  0.00    +0.038 A 
ATOM     11  C   UNL     1      -3.556   0.231  -0.426  0.00  0.00    +0.007 A 
ATOM     12  C   UNL     1      -2.396  -0.564  -0.505  0.00  0.00    -0.044 A 
ATOM     13  C   UNL     1      -1.930  -0.963  -1.772  0.00  0.00    +0.007 A 
ATOM     14  C   UNL     1      -2.615  -0.584  -2.930  0.00  0.00    +0.038 A 
ENDBRANCH   1  12
BRANCH   6  15
ATOM     15  C   UNL     1       0.213   0.816   0.569  0.00  0.00    +0.234 C 
BRANCH  15  16
ATOM     16  O   UNL     1       1.228  -0.175   0.415  0.00  0.00    -0.492 OA
BRANCH  16  17
ATOM     17  C   UNL     1       2.401   0.003  -0.331  0.00  0.00    +0.124 A 
ATOM     18  C   UNL     1       2.696   1.218  -0.998  0.00  0.00    +0.095 A 
ATOM     19  C   UNL     1       3.886   1.296  -1.716  0.00  0.00    +0.170 A 
ATOM     20  C   UNL     1       4.753   0.255  -1.789  0.00  0.00    +0.166 A 
ATOM     21  O   UNL     1       5.840   0.613  -2.562  0.00  0.00    -0.453 OA
ATOM     22  C   UNL     1       5.644   1.964  -3.003  0.00  0.00    +0.466 C 
ATOM     23  O   UNL     1       4.385   2.361  -2.441  0.00  0.00    -0.452 OA
ATOM     24  C   UNL     1       4.505  -0.956  -1.149  0.00  0.00    +0.053 A 
ATOM     25  C   UNL     1       3.312  -1.076  -0.413  0.00  0.00    +0.049 A 
ENDBRANCH  16  17
ENDBRANCH  15  16
ENDBRANCH   6  15
TORSDOF 4
