REMARK  Name = 
REMARK  22 active torsions:
REMARK  status: ('A' for Active; 'I' for Inactive)
REMARK    1  A    between atoms: N_1  and  C_2
REMARK    2  A    between atoms: C_2  and  C_3
REMARK    3  A    between atoms: C_5  and  O_6
REMARK    4  A    between atoms: O_6  and  C_7
REMARK    5  A    between atoms: C_8  and  C_9
REMARK    6  A    between atoms: C_9  and  O_10
REMARK    7  A    between atoms: C_12  and  O_13
REMARK    8  A    between atoms: O_13  and  C_14
REMARK    9  A    between atoms: C_15  and  O_16
REMARK   10  A    between atoms: C_17  and  N_18
REMARK   11  A    between atoms: C_20  and  N_21
REMARK   12  A    between atoms: C_22  and  O_23
REMARK   13  A    between atoms: O_23  and  C_24
REMARK   14  A    between atoms: C_26  and  C_27
REMARK   15  A    between atoms: C_27  and  O_28
REMARK   16  A    between atoms: C_29  and  O_30
REMARK   17  A    between atoms: C_31  and  O_32
REMARK   18  A    between atoms: C_33  and  N_34
REMARK   19  A    between atoms: C_35  and  O_36
REMARK   20  A    between atoms: C_37  and  N_38
REMARK   21  A    between atoms: C_39  and  O_40
REMARK   22  A    between atoms: C_41  and  O_42
REMARK                            x       y       z     vdW  Elec       q    Type
REMARK                         _______ _______ _______ _____ _____    ______ ____
ROOT
ATOM      1  C   UNL     1      -1.724  -1.565   0.349  0.00  0.00    +0.182 C 
ATOM      2  C   UNL     1      -1.839  -2.858   1.186  0.00  0.00    +0.163 C 
ATOM      3  C   UNL     1      -2.208  -4.085   0.299  0.00  0.00    +0.084 C 
ATOM      4  C   UNL     1      -3.013  -3.694  -0.967  0.00  0.00    +0.042 C 
ATOM      5  C   UNL     1      -3.905  -2.464  -0.721  0.00  0.00    +0.084 C 
ATOM      6  C   UNL     1      -3.075  -1.208  -0.331  0.00  0.00    +0.169 C 
ENDROOT
BRANCH   3   7
ATOM      7  N   UNL     1      -0.993  -4.803  -0.098  0.00  0.00    -0.325 NA
ATOM      8  H   UNL     1      -0.532  -5.173   0.765  0.00  0.00    +0.119 HD
ATOM      9  H   UNL     1      -1.274  -5.647  -0.648  0.00  0.00    +0.119 HD
ENDBRANCH   3   7
BRANCH   5  10
ATOM     10  N   UNL     1      -4.736  -2.171  -1.893  0.00  0.00    -0.325 NA
ATOM     11  H   UNL     1      -4.125  -2.059  -2.735  0.00  0.00    +0.119 HD
ATOM     12  H   UNL     1      -5.368  -2.988  -2.071  0.00  0.00    +0.119 HD
ENDBRANCH   5  10
BRANCH   2  13
ATOM     13  O   UNL     1      -2.813  -2.697   2.188  0.00  0.00    -0.388 OA
ATOM     14  H   UNL     1      -2.430  -2.085   2.871  0.00  0.00    +0.210 HD
ENDBRANCH   2  13
BRANCH   1  15
ATOM     15  O   UNL     1      -0.733  -1.740  -0.654  0.00  0.00    -0.340 OA
BRANCH  15  19
ATOM     16  C   UNL     1       2.642  -0.631  -1.128  0.00  0.00    +0.186 C 
ATOM     17  C   UNL     1       1.830   0.591  -0.654  0.00  0.00    +0.178 C 
ATOM     18  O   UNL     1       0.498   0.200  -0.408  0.00  0.00    -0.341 OA
ATOM     19  C   UNL     1       0.511  -1.199  -0.255  0.00  0.00    +0.282 C 
ATOM     20  C   UNL     1       1.605  -1.736  -1.153  0.00  0.00    +0.202 C 
BRANCH  20  21
ATOM     21  O   UNL     1       2.100  -2.955  -0.657  0.00  0.00    -0.384 OA
ATOM     22  H   UNL     1       2.676  -3.331  -1.375  0.00  0.00    +0.210 HD
ENDBRANCH  20  21
BRANCH  16  23
ATOM     23  O   UNL     1       3.666  -0.948  -0.194  0.00  0.00    -0.341 OA
BRANCH  23  26
ATOM     24  C   UNL     1       5.537   1.498   0.897  0.00  0.00    +0.166 C 
ATOM     25  O   UNL     1       4.817   1.070  -0.252  0.00  0.00    -0.343 OA
ATOM     26  C   UNL     1       4.895  -0.328  -0.527  0.00  0.00    +0.270 C 
ATOM     27  C   UNL     1       6.042  -1.073   0.202  0.00  0.00    +0.139 C 
ATOM     28  C   UNL     1       5.951  -0.865   1.733  0.00  0.00    +0.167 C 
ATOM     29  C   UNL     1       5.370   0.526   2.089  0.00  0.00    +0.175 C 
BRANCH  27  30
ATOM     30  N   UNL     1       5.998  -2.503  -0.122  0.00  0.00    -0.321 NA
ATOM     31  H   UNL     1       6.135  -2.609  -1.153  0.00  0.00    +0.119 HD
ATOM     32  H   UNL     1       6.820  -2.974   0.321  0.00  0.00    +0.119 HD
ENDBRANCH  27  30
BRANCH  28  33
ATOM     33  O   UNL     1       7.233  -0.987   2.298  0.00  0.00    -0.387 OA
ATOM     34  H   UNL     1       7.389  -1.952   2.467  0.00  0.00    +0.210 HD
ENDBRANCH  28  33
BRANCH  29  35
ATOM     35  O   UNL     1       4.006   0.413   2.412  0.00  0.00    -0.387 OA
ATOM     36  H   UNL     1       3.956   0.052   3.337  0.00  0.00    +0.210 HD
ENDBRANCH  29  35
BRANCH  24  37
ATOM     37  C   UNL     1       5.073   2.912   1.280  0.00  0.00    +0.112 C 
BRANCH  37  38
ATOM     38  N   UNL     1       5.242   3.832   0.159  0.00  0.00    -0.328 NA
ATOM     39  H   UNL     1       4.932   4.777   0.479  0.00  0.00    +0.118 HD
ATOM     40  H   UNL     1       6.263   3.907  -0.056  0.00  0.00    +0.118 HD
ENDBRANCH  37  38
ENDBRANCH  24  37
ENDBRANCH  23  26
ENDBRANCH  16  23
BRANCH  17  41
ATOM     41  C   UNL     1       1.842   1.729  -1.683  0.00  0.00    +0.190 C 
BRANCH  41  42
ATOM     42  O   UNL     1       1.203   1.323  -2.862  0.00  0.00    -0.392 OA
ATOM     43  H   UNL     1       1.416   2.014  -3.543  0.00  0.00    +0.210 HD
ENDBRANCH  41  42
ENDBRANCH  17  41
ENDBRANCH  15  19
ENDBRANCH   1  15
BRANCH   6  44
ATOM     44  O   UNL     1      -3.861  -0.428   0.567  0.00  0.00    -0.342 OA
BRANCH  44  45
ATOM     45  C   UNL     1      -4.083   0.908   0.133  0.00  0.00    +0.270 C 
ATOM     46  O   UNL     1      -5.425   1.248   0.424  0.00  0.00    -0.342 OA
ATOM     47  C   UNL     1      -5.825   2.464  -0.207  0.00  0.00    +0.178 C 
ATOM     48  C   UNL     1      -4.675   3.502  -0.402  0.00  0.00    +0.176 C 
ATOM     49  C   UNL     1      -3.642   3.353   0.730  0.00  0.00    +0.167 C 
ATOM     50  C   UNL     1      -3.145   1.883   0.891  0.00  0.00    +0.139 C 
BRANCH  50  51
ATOM     51  N   UNL     1      -3.092   1.546   2.320  0.00  0.00    -0.321 NA
ATOM     52  H   UNL     1      -2.497   2.254   2.803  0.00  0.00    +0.119 HD
ATOM     53  H   UNL     1      -2.590   0.641   2.441  0.00  0.00    +0.119 HD
ENDBRANCH  50  51
BRANCH  48  54
ATOM     54  O   UNL     1      -5.190   4.810  -0.388  0.00  0.00    -0.387 OA
ATOM     55  H   UNL     1      -5.583   4.974  -1.280  0.00  0.00    +0.210 HD
ENDBRANCH  48  54
BRANCH  49  56
ATOM     56  O   UNL     1      -2.556   4.229   0.541  0.00  0.00    -0.387 OA
ATOM     57  H   UNL     1      -2.122   3.987  -0.318  0.00  0.00    +0.210 HD
ENDBRANCH  49  56
BRANCH  47  58
ATOM     58  C   UNL     1      -6.543   2.158  -1.532  0.00  0.00    +0.190 C 
BRANCH  58  59
ATOM     59  O   UNL     1      -7.620   1.288  -1.314  0.00  0.00    -0.392 OA
ATOM     60  H   UNL     1      -7.247   0.368  -1.310  0.00  0.00    +0.210 HD
ENDBRANCH  58  59
ENDBRANCH  47  58
ENDBRANCH  44  45
ENDBRANCH   6  44
TORSDOF 22
