REMARK  Name = 
REMARK  9 active torsions:
REMARK  status: ('A' for Active; 'I' for Inactive)
REMARK    1  A    between atoms: C_1  and  N_2
REMARK    2  A    between atoms: N_2  and  C_3
REMARK    3  A    between atoms: N_2  and  C_14
REMARK    4  A    between atoms: N_7  and  C_8
REMARK    5  A    between atoms: C_9  and  C_10
REMARK    6  A    between atoms: N_19  and  C_20
REMARK    7  A    between atoms: C_23  and  C_24
REMARK    8  A    between atoms: C_25  and  S_27
REMARK    9  A    between atoms: S_27  and  N_28
REMARK                            x       y       z     vdW  Elec       q    Type
REMARK                         _______ _______ _______ _____ _____    ______ ____
ROOT
ATOM      1  C   UNL     1      -0.517  -0.541  -0.830  0.00  0.00    +0.130 A 
ATOM      2  C   UNL     1      -0.562   0.646  -0.080  0.00  0.00    +0.064 A 
ATOM      3  C   UNL     1       0.586   1.057   0.594  0.00  0.00    +0.118 A 
ATOM      4  N   UNL     1       1.723   0.322   0.508  0.00  0.00    -0.223 NA
ATOM      5  C   UNL     1       1.769  -0.814  -0.239  0.00  0.00    +0.221 A 
ATOM      6  N   UNL     1       2.967  -1.601  -0.307  0.00  0.00    -0.284 N 
ATOM      7  N   UNL     1       0.653  -1.235  -0.890  0.00  0.00    -0.199 NA
ATOM      8  H   UNL     1       2.874  -2.594  -0.620  0.00  0.00    +0.155 HD
ENDROOT
BRANCH   6   9
ATOM      9  C   UNL     1       4.259  -1.144   0.125  0.00  0.00    +0.035 A 
ATOM     10  C   UNL     1       5.152  -2.053   0.700  0.00  0.00    +0.024 A 
ATOM     11  C   UNL     1       6.418  -1.637   1.112  0.00  0.00    +0.007 A 
ATOM     12  C   UNL     1       6.824  -0.303   0.947  0.00  0.00    -0.024 A 
ATOM     13  C   UNL     1       8.206   0.096   1.393  0.00  0.00    +0.046 C 
ATOM     14  C   UNL     1       5.945   0.615   0.321  0.00  0.00    +0.110 A 
ATOM     15  C   UNL     1       4.670   0.184  -0.080  0.00  0.00    +0.052 A 
BRANCH  14  16
ATOM     16  S   UNL     1       6.407   2.303   0.038  0.00  0.00    +0.056 S 
ATOM     17  O   UNL     1       6.504   3.020   1.356  0.00  0.00    -0.153 OA
ATOM     18  O   UNL     1       7.735   2.357  -0.664  0.00  0.00    -0.153 OA
BRANCH  16  19
ATOM     19  N   UNL     1       5.232   3.104  -0.947  0.00  0.00    -0.204 NA
ATOM     20  H   UNL     1       5.288   2.679  -1.899  0.00  0.00    +0.144 HD
ATOM     21  H   UNL     1       5.540   4.098  -1.043  0.00  0.00    +0.144 HD
ENDBRANCH  16  19
ENDBRANCH  14  16
ENDBRANCH   6   9
BRANCH   1  23
ATOM     22  C   UNL     1      -1.479  -1.836  -2.756  0.00  0.00    +0.137 C 
ATOM     23  N   UNL     1      -1.672  -1.016  -1.556  0.00  0.00    -0.288 N 
BRANCH  23  24
ATOM     24  C   UNL     1      -3.008  -0.637  -1.169  0.00  0.00    +0.037 A 
ATOM     25  C   UNL     1      -3.429  -0.802   0.171  0.00  0.00    +0.053 A 
ATOM     26  C   UNL     1      -4.730  -0.430   0.499  0.00  0.00    +0.095 A 
ATOM     27  N   UNL     1      -5.330  -0.518   1.700  0.00  0.00    -0.171 NA
ATOM     28  N   UNL     1      -6.570  -0.067   1.536  0.00  0.00    -0.270 N 
ATOM     29  C   UNL     1      -7.550  -0.007   2.614  0.00  0.00    +0.172 C 
ATOM     30  C   UNL     1      -6.763   0.323   0.250  0.00  0.00    +0.044 A 
ATOM     31  C   UNL     1      -8.055   0.820  -0.324  0.00  0.00    +0.066 C 
ATOM     32  C   UNL     1      -5.591   0.081  -0.434  0.00  0.00    +0.023 A 
ATOM     33  C   UNL     1      -5.221   0.253  -1.765  0.00  0.00    +0.013 A 
ATOM     34  C   UNL     1      -3.912  -0.113  -2.131  0.00  0.00    +0.024 A 
ENDBRANCH  23  24
ENDBRANCH   1  23
TORSDOF 5
