REMARK  Name = 
REMARK  6 active torsions:
REMARK  status: ('A' for Active; 'I' for Inactive)
REMARK    1  A    between atoms: C_1  and  C_2
REMARK    2  A    between atoms: C_2  and  N_3
REMARK    3  A    between atoms: C_5  and  C_6
REMARK    4  A    between atoms: C_6  and  O_7
REMARK    5  A    between atoms: C_15  and  N_18
REMARK    6  A    between atoms: N_21  and  C_22
REMARK                            x       y       z     vdW  Elec       q    Type
REMARK                         _______ _______ _______ _____ _____    ______ ____
ROOT
ATOM      1  N   UNL     1      -2.734  -0.706   0.347  0.00  0.00    -0.346 N 
ATOM      2  C   UNL     1      -3.974  -0.132   0.431  0.00  0.00    +0.105 A 
ATOM      3  C   UNL     1      -4.174   1.238   0.207  0.00  0.00    +0.122 A 
ATOM      4  C   UNL     1      -3.063   2.033  -0.123  0.00  0.00    +0.203 A 
ATOM      5  O   UNL     1      -3.205   3.271  -0.321  0.00  0.00    -0.286 OA
ATOM      6  C   UNL     1      -1.790   1.447  -0.238  0.00  0.00    +0.049 A 
ATOM      7  C   UNL     1      -0.670   2.229  -0.582  0.00  0.00    +0.054 A 
ATOM      8  C   UNL     1       0.590   1.650  -0.715  0.00  0.00    +0.145 A 
ATOM      9  F   UNL     1       1.653   2.437  -1.016  0.00  0.00    -0.204 F 
ATOM     10  C   UNL     1       0.758   0.275  -0.517  0.00  0.00    +0.067 A 
ATOM     11  C   UNL     1      -0.347  -0.512  -0.163  0.00  0.00    +0.052 A 
ATOM     12  C   UNL     1      -1.636   0.054  -0.009  0.00  0.00    +0.055 A 
ENDROOT
BRANCH  10  13
ATOM     13  N   UNL     1       2.058  -0.326  -0.659  0.00  0.00    -0.325 N 
ATOM     14  C   UNL     1       2.804  -0.209  -1.914  0.00  0.00    +0.120 C 
ATOM     15  C   UNL     1       4.247   0.261  -1.645  0.00  0.00    +0.103 C 
ATOM     16  N   UNL     1       4.790  -0.166  -0.329  0.00  0.00    -0.302 NA
ATOM     17  C   UNL     1       4.810   0.943   0.642  0.00  0.00    +0.105 C 
ATOM     18  C   UNL     1       4.121  -1.365   0.218  0.00  0.00    +0.103 C 
ATOM     19  C   UNL     1       2.616  -1.133   0.430  0.00  0.00    +0.120 C 
ENDBRANCH  10  13
BRANCH   1  21
ATOM     20  C   UNL     1      -2.708  -2.955  -0.678  0.00  0.00    +0.027 C 
ATOM     21  C   UNL     1      -2.648  -2.155   0.621  0.00  0.00    +0.118 C 
ENDBRANCH   1  21
BRANCH   3  22
ATOM     22  C   UNL     1      -5.545   1.810   0.324  0.00  0.00    +0.342 C 
ATOM     23  O   UNL     1      -6.518   1.069   0.634  0.00  0.00    -0.245 OA
BRANCH  22  24
ATOM     24  O   UNL     1      -5.778   3.163   0.094  0.00  0.00    -0.477 OA
ATOM     25  H   UNL     1      -6.710   3.552   0.173  0.00  0.00    +0.295 HD
ENDBRANCH  22  24
ENDBRANCH   3  22
TORSDOF 4
