REMARK  Name = 
REMARK  11 active torsions:
REMARK  status: ('A' for Active; 'I' for Inactive)
REMARK    1  A    between atoms: C_10  and  C_11
REMARK    2  A    between atoms: C_11  and  C_12
REMARK    3  A    between atoms: C_12  and  C_13
REMARK    4  A    between atoms: C_16  and  C_19
REMARK    5  A    between atoms: N_21  and  CA_22
REMARK    6  A    between atoms: CA_22  and  CB_23
REMARK    7  A    between atoms: CA_22  and  C_28
REMARK    8  A    between atoms: CB_23  and  CG_24
REMARK    9  A    between atoms: CG_24  and  CD_25
REMARK   10  A    between atoms: CD_25  and  OE1_26
REMARK   11  A    between atoms: C_28  and  O_29
REMARK                            x       y       z     vdW  Elec       q    Type
REMARK                         _______ _______ _______ _____ _____    ______ ____
ROOT
ATOM      1  C   UNK A   0      -1.190   0.337  -0.653  0.00  0.00    -0.047 A 
ATOM      2  C   UNK A   0      -0.356   1.240   0.023  0.00  0.00    +0.004 A 
ATOM      3  C   UNK A   0       1.034   1.139  -0.088  0.00  0.00    +0.013 A 
ATOM      4  C   UNK A   0       1.615   0.120  -0.866  0.00  0.00    +0.037 A 
ATOM      5  C   UNK A   0       0.775  -0.785  -1.539  0.00  0.00    +0.013 A 
ATOM      6  C   UNK A   0      -0.614  -0.683  -1.426  0.00  0.00    +0.004 A 
ENDROOT
BRANCH   4   7
ATOM      7  C   UNK A   0       3.087   0.009  -1.005  0.00  0.00    +0.245 C 
ATOM      8  O   UNK A   0       3.570  -0.557  -2.025  0.00  0.00    -0.270 OA
ATOM      9  N   GLU A   1       3.971   0.522   0.006  0.00  0.00    -0.298 N 
ATOM     10  H   GLU A   1       3.575   0.798   0.933  0.00  0.00    +0.150 HD
BRANCH   9  11
ATOM     11  CA  GLU A   1       5.419   0.614  -0.204  0.00  0.00    +0.182 C 
BRANCH  11  12
ATOM     12  C   GLU A   1       5.710   1.708  -1.194  0.00  0.00    +0.325 C 
ATOM     13  OXT GLU A   1       5.428   2.906  -0.919  0.00  0.00    -0.249 OA
BRANCH  12  14
ATOM     14  O   GLU A   1       6.274   1.393  -2.426  0.00  0.00    -0.479 OA
ATOM     15  H   GLU A   1       6.473   2.117  -3.107  0.00  0.00    +0.295 HD
ENDBRANCH  12  14
ENDBRANCH  11  12
BRANCH  11  16
ATOM     16  CB  GLU A   1       6.142   0.861   1.136  0.00  0.00    +0.045 C 
BRANCH  16  17
ATOM     17  CG  GLU A   1       7.670   0.841   0.989  0.00  0.00    +0.123 C 
BRANCH  17  18
ATOM     18  CD  GLU A   1       8.329   0.991   2.324  0.00  0.00    +0.305 C 
ATOM     19  OE2 GLU A   1       8.351   2.114   2.896  0.00  0.00    -0.251 OA
BRANCH  18  20
ATOM     20  OE1 GLU A   1       8.895  -0.120   2.945  0.00  0.00    -0.481 OA
ATOM     21  HE1 GLU A   1       9.333  -0.038   3.855  0.00  0.00    +0.295 HD
ENDBRANCH  18  20
ENDBRANCH  17  18
ENDBRANCH  16  17
ENDBRANCH  11  16
ENDBRANCH   9  11
ENDBRANCH   4   7
BRANCH   1  22
ATOM     22  C   UNK A   0      -2.685   0.427  -0.510  0.00  0.00    +0.040 C 
BRANCH  22  23
ATOM     23  C   UNK A   0      -3.167  -0.443   0.654  0.00  0.00    +0.042 C 
BRANCH  23  33
ATOM     24  N   UNK A   0      -9.082  -2.584  -1.686  0.00  0.00    -0.329 N 
ATOM     25  C   UNK A   0      -7.890  -2.072  -1.093  0.00  0.00    +0.195 A 
ATOM     26  N   UNK A   0      -6.666  -2.532  -1.508  0.00  0.00    -0.177 NA
ATOM     27  C   UNK A   0      -5.506  -2.059  -0.967  0.00  0.00    +0.284 A 
ATOM     28  O   UNK A   0      -4.394  -2.492  -1.368  0.00  0.00    -0.265 OA
ATOM     29  C   UNK A   0      -5.597  -1.090   0.028  0.00  0.00    +0.086 A 
ATOM     30  C   UNK A   0      -6.823  -0.644   0.426  0.00  0.00    +0.124 A 
ATOM     31  N   UNK A   0      -6.723   0.308   1.370  0.00  0.00    -0.347 N 
ATOM     32  C   UNK A   0      -5.397   0.475   1.579  0.00  0.00    +0.088 A 
ATOM     33  C   UNK A   0      -4.661  -0.388   0.768  0.00  0.00    -0.015 A 
ATOM     34  N   UNK A   0      -7.973  -1.117  -0.117  0.00  0.00    -0.314 N 
ATOM     35  H   UNK A   0      -9.047  -3.303  -2.447  0.00  0.00    +0.145 HD
ATOM     36  H   UNK A   0      -9.029  -3.299  -2.440  0.00  0.00    +0.145 HD
ATOM     37  H   UNK A   0      -7.503   0.823   1.835  0.00  0.00    +0.167 HD
ATOM     38  H   UNK A   0      -8.900  -0.755   0.200  0.00  0.00    +0.170 HD
ENDBRANCH  23  33
ENDBRANCH  22  23
ENDBRANCH   1  22
TORSDOF 11
