REMARK  Name = 
REMARK  2 active torsions:
REMARK  status: ('A' for Active; 'I' for Inactive)
REMARK    1  A    between atoms: C_1  and  C_2
REMARK    2  A    between atoms: C_9  and  C_13
REMARK                            x       y       z     vdW  Elec       q    Type
REMARK                         _______ _______ _______ _____ _____    ______ ____
ROOT
ATOM      1  C   UNL     1      -3.486  -1.134  -0.568  0.00  0.00    +0.047 C 
ATOM      2  C   UNL     1      -2.560   0.040  -0.402  0.00  0.00    -0.008 A 
ATOM      3  C   UNL     1      -3.070   1.342  -0.410  0.00  0.00    +0.008 A 
ATOM      4  C   UNL     1      -2.213   2.425  -0.257  0.00  0.00    +0.019 A 
ATOM      5  C   UNL     1      -0.845   2.206  -0.097  0.00  0.00    +0.096 A 
ATOM      6  N   UNL     1      -0.331   0.934  -0.087  0.00  0.00    -0.267 N 
ATOM      7  C   UNL     1       1.021   0.730   0.071  0.00  0.00    +0.269 A 
ATOM      8  O   UNL     1       1.800   1.716   0.210  0.00  0.00    -0.266 OA
ATOM      9  C   UNL     1       1.548  -0.578   0.081  0.00  0.00    +0.105 A 
ATOM     10  C   UNL     1       0.657  -1.643  -0.075  0.00  0.00    +0.130 A 
ATOM     11  N   UNL     1      -0.666  -1.409  -0.229  0.00  0.00    -0.236 NA
ATOM     12  C   UNL     1      -1.173  -0.148  -0.238  0.00  0.00    +0.143 A 
ENDROOT
BRANCH   9  13
ATOM     13  C   UNL     1       2.998  -0.853   0.249  0.00  0.00    +0.211 A 
ATOM     14  N   UNL     1       3.950   0.089   0.407  0.00  0.00    -0.133 NA
ATOM     15  N   UNL     1       5.072  -0.600   0.517  0.00  0.00    -0.176 N 
ATOM     16  N   UNL     1       4.836  -1.897   0.432  0.00  0.00    -0.049 NA
ATOM     17  N   UNL     1       3.539  -2.090   0.263  0.00  0.00    -0.108 NA
ATOM     18  H   UNL     1       6.016  -0.176   0.652  0.00  0.00    +0.214 HD
ENDBRANCH   9  13
TORSDOF 1
