REMARK  Name = 
REMARK  11 active torsions:
REMARK  status: ('A' for Active; 'I' for Inactive)
REMARK    1  A    between atoms: C_1  and  C_2
REMARK    2  A    between atoms: C_2  and  C_3
REMARK    3  A    between atoms: C_2  and  C_4
REMARK    4  A    between atoms: C_2  and  N_5
REMARK    5  A    between atoms: N_5  and  C_6
REMARK    6  A    between atoms: C_6  and  C_7
REMARK    7  A    between atoms: C_7  and  O_8
REMARK    8  A    between atoms: C_7  and  C_9
REMARK    9  A    between atoms: C_9  and  O_10
REMARK   10  A    between atoms: O_10  and  C_11
REMARK   11  A    between atoms: C_16  and  C_17
REMARK                            x       y       z     vdW  Elec       q    Type
REMARK                         _______ _______ _______ _____ _____    ______ ____
ROOT
ATOM      1  O   UNL     1      -0.765  -0.486   0.675  0.00  0.00    -0.489 OA
ENDROOT
BRANCH   1   2
ATOM      2  C   UNL     1      -1.509   0.708   0.642  0.00  0.00    +0.124 A 
ATOM      3  C   UNL     1      -0.910   1.965   0.866  0.00  0.00    +0.046 A 
ATOM      4  C   UNL     1      -1.675   3.132   0.837  0.00  0.00    +0.004 A 
ATOM      5  C   UNL     1      -3.044   3.065   0.595  0.00  0.00    +0.001 A 
ATOM      6  C   UNL     1      -3.656   1.831   0.380  0.00  0.00    +0.007 A 
ATOM      7  C   UNL     1      -2.902   0.640   0.397  0.00  0.00    -0.003 A 
BRANCH   7   8
ATOM      8  C   UNL     1      -3.595  -0.697   0.164  0.00  0.00    +0.023 C 
ATOM      9  C   UNL     1      -4.382  -0.740  -1.157  0.00  0.00    +0.008 C 
ATOM     10  C   UNL     1      -5.832  -1.022  -0.788  0.00  0.00    +0.001 C 
ATOM     11  C   UNL     1      -5.790  -1.657   0.589  0.00  0.00    +0.001 C 
ATOM     12  C   UNL     1      -4.591  -1.034   1.281  0.00  0.00    +0.008 C 
ENDBRANCH   7   8
ENDBRANCH   1   2
BRANCH   1  13
ATOM     13  C   UNL     1       0.656  -0.603   0.593  0.00  0.00    +0.261 C 
BRANCH  13  14
ATOM     14  C   UNL     1       1.131  -0.470  -0.867  0.00  0.00    +0.166 C 
BRANCH  14  15
ATOM     15  O   UNL     1       0.942   0.836  -1.352  0.00  0.00    -0.387 OA
ATOM     16  H   UNL     1       1.524   1.442  -0.825  0.00  0.00    +0.210 HD
ENDBRANCH  14  15
BRANCH  14  17
ATOM     17  C   UNL     1       2.592  -0.921  -1.060  0.00  0.00    +0.116 C 
BRANCH  17  18
ATOM     18  N   UNL     1       3.513  -0.100  -0.253  0.00  0.00    -0.309 NA
ATOM     19  H   UNL     1       3.467  -0.459   0.731  0.00  0.00    +0.123 HD
BRANCH  18  21
ATOM     20  C   UNL     1       5.085   0.658  -2.027  0.00  0.00    +0.027 C 
ATOM     21  C   UNL     1       4.930  -0.112  -0.697  0.00  0.00    +0.011 C 
ATOM     22  C   UNL     1       5.474  -1.550  -0.847  0.00  0.00    +0.027 C 
ATOM     23  C   UNL     1       5.771   0.620   0.371  0.00  0.00    +0.027 C 
ENDBRANCH  18  21
ENDBRANCH  17  18
ENDBRANCH  14  17
ENDBRANCH  13  14
ENDBRANCH   1  13
TORSDOF 8
