REMARK  Name = 
REMARK  7 active torsions:
REMARK  status: ('A' for Active; 'I' for Inactive)
REMARK    1  A    between atoms: N_9  and  C_10
REMARK    2  A    between atoms: C_10  and  C_11
REMARK    3  A    between atoms: C_11  and  C_12
REMARK    4  A    between atoms: C_12  and  C_13
REMARK    5  A    between atoms: C_12  and  C_15
REMARK    6  A    between atoms: C_13  and  O_14
REMARK    7  A    between atoms: C_15  and  O_16
REMARK                            x       y       z     vdW  Elec       q    Type
REMARK                         _______ _______ _______ _____ _____    ______ ____
ROOT
ATOM      1  N   UNL     1       3.474  -1.044  -2.693  0.00  0.00    -0.329 N 
ATOM      2  C   UNL     1       3.293  -0.830  -1.293  0.00  0.00    +0.195 A 
ATOM      3  N   UNL     1       4.390  -0.680  -0.481  0.00  0.00    -0.176 NA
ATOM      4  C   UNL     1       4.259  -0.470   0.861  0.00  0.00    +0.302 A 
ATOM      5  O   UNL     1       5.274  -0.328   1.592  0.00  0.00    -0.263 OA
ATOM      6  C   UNL     1       2.977  -0.414   1.387  0.00  0.00    +0.172 A 
ATOM      7  C   UNL     1       1.907  -0.568   0.573  0.00  0.00    +0.146 A 
ATOM      8  N   UNL     1       2.030  -0.770  -0.764  0.00  0.00    -0.312 N 
ATOM      9  N   UNL     1       0.782  -0.462   1.294  0.00  0.00    -0.316 N 
ATOM     10  C   UNL     1       1.224  -0.225   2.555  0.00  0.00    +0.201 A 
ATOM     11  N   UNL     1       2.582  -0.193   2.655  0.00  0.00    -0.229 NA
ATOM     12  H   UNL     1       4.435  -1.089  -3.099  0.00  0.00    +0.145 HD
ATOM     13  H   UNL     1       2.652  -1.157  -3.325  0.00  0.00    +0.145 HD
ATOM     14  H   UNL     1       1.188  -0.876  -1.373  0.00  0.00    +0.170 HD
ENDROOT
BRANCH   9  15
ATOM     15  C   UNL     1      -0.604  -0.484   0.830  0.00  0.00    +0.125 C 
BRANCH  15  16
ATOM     16  C   UNL     1      -0.992   0.896   0.278  0.00  0.00    +0.029 C 
BRANCH  16  17
ATOM     17  C   UNL     1      -2.427   0.981  -0.306  0.00  0.00    +0.042 C 
BRANCH  17  18
ATOM     18  C   UNL     1      -2.625   0.079  -1.542  0.00  0.00    +0.161 C 
BRANCH  18  19
ATOM     19  O   UNL     1      -1.642   0.323  -2.512  0.00  0.00    -0.395 OA
ATOM     20  H   UNL     1      -1.860   1.200  -2.924  0.00  0.00    +0.209 HD
ENDBRANCH  18  19
ENDBRANCH  17  18
BRANCH  17  21
ATOM     21  C   UNL     1      -3.518   0.698   0.744  0.00  0.00    +0.161 C 
BRANCH  21  22
ATOM     22  O   UNL     1      -3.370   1.554   1.843  0.00  0.00    -0.395 OA
ATOM     23  H   UNL     1      -4.088   1.309   2.482  0.00  0.00    +0.209 HD
ENDBRANCH  21  22
ENDBRANCH  17  21
ENDBRANCH  16  17
ENDBRANCH  15  16
ENDBRANCH   9  15
TORSDOF 7
