REMARK  Name = 
REMARK  7 active torsions:
REMARK  status: ('A' for Active; 'I' for Inactive)
REMARK    1  A    between atoms: C_3  and  C_4
REMARK    2  A    between atoms: C_3  and  C_5
REMARK    3  A    between atoms: CA_6  and  C_21
REMARK    4  A    between atoms: CA_10  and  N_11
REMARK    5  A    between atoms: C_12  and  C_14
REMARK    6  A    between atoms: C_14  and  C_15
REMARK    7  A    between atoms: C_21  and  O_22
REMARK                            x       y       z     vdW  Elec       q    Type
REMARK                         _______ _______ _______ _____ _____    ______ ____
ROOT
ATOM      1  C   UNL     1      -1.265  -0.450   1.372  0.00  0.00    +0.165 C 
ATOM      2  S   UNL     1      -1.222   0.799   0.039  0.00  0.00    -0.127 S 
ATOM      3  C   UNL     1      -3.049   0.629  -0.234  0.00  0.00    +0.042 C 
ATOM      4  C   UNL     1      -3.744   1.692   0.641  0.00  0.00    +0.025 C 
ATOM      5  C   UNL     1      -3.356   0.903  -1.714  0.00  0.00    +0.025 C 
ATOM      6  CA  UNL     1      -3.438  -0.835   0.150  0.00  0.00    +0.201 C 
ATOM      7  N   UNL     1      -2.392  -1.268   1.041  0.00  0.00    -0.271 N 
ATOM      8  C   UNL     1      -1.505  -2.454   1.076  0.00  0.00    +0.240 C 
ATOM      9  O   UNL     1      -1.661  -3.691   0.898  0.00  0.00    -0.273 OA
ATOM     10  CA  UNL     1      -0.335  -1.557   1.335  0.00  0.00    +0.190 C 
ENDROOT
BRANCH  10  11
ATOM     11  N   UNL     1       0.595  -1.528   0.204  0.00  0.00    -0.301 N 
ATOM     12  C   UNL     1       1.824  -0.791   0.262  0.00  0.00    +0.218 C 
ATOM     13  O   UNL     1       2.136  -0.167   1.314  0.00  0.00    -0.275 OA
ATOM     14  H   UNL     1       0.379  -2.074  -0.661  0.00  0.00    +0.150 HD
BRANCH  12  15
ATOM     15  C   UNL     1       2.732  -0.778  -0.937  0.00  0.00    +0.130 C 
BRANCH  15  16
ATOM     16  C   UNL     1       3.918   0.133  -0.754  0.00  0.00    -0.039 A 
ATOM     17  C   UNL     1       3.843   1.483  -1.136  0.00  0.00    +0.004 A 
ATOM     18  C   UNL     1       4.935   2.333  -0.937  0.00  0.00    +0.000 A 
ATOM     19  C   UNL     1       6.106   1.844  -0.350  0.00  0.00    +0.000 A 
ATOM     20  C   UNL     1       6.183   0.506   0.044  0.00  0.00    +0.000 A 
ATOM     21  C   UNL     1       5.093  -0.347  -0.152  0.00  0.00    +0.004 A 
ENDBRANCH  15  16
ENDBRANCH  12  15
ENDBRANCH  10  11
BRANCH   6  22
ATOM     22  C   UNL     1      -4.788  -0.994   0.794  0.00  0.00    +0.327 C 
ATOM     23  OXT UNL     1      -5.816  -1.099   0.074  0.00  0.00    -0.249 OA
BRANCH  22  24
ATOM     24  O   UNL     1      -4.914  -0.983   2.181  0.00  0.00    -0.479 OA
ATOM     25  H   UNL     1      -5.821  -1.070   2.622  0.00  0.00    +0.295 HD
ENDBRANCH  22  24
ENDBRANCH   6  22
TORSDOF 5
