REMARK  Name = 
REMARK  7 active torsions:
REMARK  status: ('A' for Active; 'I' for Inactive)
REMARK    1  A    between atoms: C_1  and  C_2
REMARK    2  A    between atoms: C_2  and  C_3
REMARK    3  A    between atoms: C_2  and  S_4
REMARK    4  A    between atoms: C_2  and  CA_5
REMARK    5  A    between atoms: CA_5  and  N_6
REMARK    6  A    between atoms: CA_5  and  C_7
REMARK    7  A    between atoms: C_7  and  O_8
REMARK                            x       y       z     vdW  Elec       q    Type
REMARK                         _______ _______ _______ _____ _____    ______ ____
ROOT
ATOM      1  CA  UNL     1       0.517  -0.582  -0.545  0.00  0.00    +0.176 C 
ENDROOT
BRANCH   1   3
ATOM      2  C   UNL     1      -1.054  -0.489   1.477  0.00  0.00    +0.024 C 
ATOM      3  C   UNL     1      -0.816   0.002   0.034  0.00  0.00    +0.033 C 
ATOM      4  C   UNL     1      -0.818   1.543   0.019  0.00  0.00    +0.024 C 
BRANCH   3   5
ATOM      5  S   UNL     1      -2.235  -0.567  -0.981  0.00  0.00    -0.170 S 
ATOM      6  H   UNL     1      -1.997  -1.937  -0.753  0.00  0.00    +0.102 HD
ENDBRANCH   3   5
ENDBRANCH   1   3
BRANCH   1   7
ATOM      7  N   UNL     1       0.761  -0.103  -1.911  0.00  0.00    -0.317 NA
ATOM      8  H1  UNL     1       0.037  -0.507  -2.547  0.00  0.00    +0.119 HD
ATOM      9  H2  UNL     1       1.671  -0.498  -2.245  0.00  0.00    +0.119 HD
ENDBRANCH   1   7
BRANCH   1  10
ATOM     10  C   UNL     1       1.710  -0.249   0.320  0.00  0.00    +0.323 C 
ATOM     11  OXT UNL     1       2.107  -1.073   1.188  0.00  0.00    -0.249 OA
BRANCH  10  12
ATOM     12  O   UNL     1       2.363   0.971   0.176  0.00  0.00    -0.480 OA
ATOM     13  H   UNL     1       3.159   1.207   0.758  0.00  0.00    +0.295 HD
ENDBRANCH  10  12
ENDBRANCH   1  10
TORSDOF 5
