REMARK  Name = 
REMARK  8 active torsions:
REMARK  status: ('A' for Active; 'I' for Inactive)
REMARK    1  A    between atoms: C_3  and  C_4
REMARK    2  A    between atoms: C_3  and  C_5
REMARK    3  A    between atoms: CA_6  and  C_22
REMARK    4  A    between atoms: CA_10  and  N_11
REMARK    5  A    between atoms: C_12  and  C_14
REMARK    6  A    between atoms: C_14  and  O_15
REMARK    7  A    between atoms: O_15  and  C_16
REMARK    8  A    between atoms: C_22  and  O_23
REMARK                            x       y       z     vdW  Elec       q    Type
REMARK                         _______ _______ _______ _____ _____    ______ ____
ROOT
ATOM      1  C   UNL     1      -0.857   0.380  -2.328  0.00  0.00    +0.165 C 
ATOM      2  S   UNL     1       0.118  -0.730  -1.245  0.00  0.00    -0.127 S 
ATOM      3  C   UNL     1      -1.349  -1.216  -0.217  0.00  0.00    +0.042 C 
ATOM      4  C   UNL     1      -1.295  -2.734   0.045  0.00  0.00    +0.025 C 
ATOM      5  C   UNL     1      -1.233  -0.482   1.131  0.00  0.00    +0.025 C 
ATOM      6  CA  UNL     1      -2.645  -0.746  -0.954  0.00  0.00    +0.201 C 
ATOM      7  N   UNL     1      -2.188   0.321  -1.807  0.00  0.00    -0.271 N 
ATOM      8  C   UNL     1      -2.165   1.795  -1.661  0.00  0.00    +0.240 C 
ATOM      9  O   UNL     1      -2.972   2.661  -1.236  0.00  0.00    -0.273 OA
ATOM     10  CA  UNL     1      -0.752   1.812  -2.154  0.00  0.00    +0.190 C 
ENDROOT
BRANCH  10  11
ATOM     11  N   UNL     1       0.189   2.239  -1.115  0.00  0.00    -0.299 N 
ATOM     12  C   UNL     1       1.600   2.314  -1.364  0.00  0.00    +0.251 C 
ATOM     13  O   UNL     1       2.068   1.946  -2.475  0.00  0.00    -0.272 OA
ATOM     14  H   UNL     1      -0.178   2.602  -0.206  0.00  0.00    +0.150 HD
BRANCH  12  15
ATOM     15  C   UNL     1       2.524   2.874  -0.324  0.00  0.00    +0.324 C 
BRANCH  15  16
ATOM     16  O   UNL     1       2.200   2.377   0.974  0.00  0.00    -0.483 OA
BRANCH  16  17
ATOM     17  C   UNL     1       2.400   1.058   1.412  0.00  0.00    +0.121 A 
ATOM     18  C   UNL     1       1.994   0.722   2.710  0.00  0.00    +0.045 A 
ATOM     19  C   UNL     1       2.161  -0.580   3.192  0.00  0.00    +0.004 A 
ATOM     20  C   UNL     1       2.734  -1.559   2.377  0.00  0.00    +0.000 A 
ATOM     21  C   UNL     1       3.149  -1.235   1.083  0.00  0.00    +0.004 A 
ATOM     22  C   UNL     1       2.990   0.068   0.600  0.00  0.00    +0.045 A 
ENDBRANCH  16  17
ENDBRANCH  15  16
ENDBRANCH  12  15
ENDBRANCH  10  11
BRANCH   6  23
ATOM     23  C   UNL     1      -3.300  -1.812  -1.800  0.00  0.00    +0.327 C 
ATOM     24  OXT UNL     1      -2.825  -2.113  -2.928  0.00  0.00    -0.249 OA
BRANCH  23  25
ATOM     25  O   UNL     1      -4.407  -2.507  -1.322  0.00  0.00    -0.479 OA
ATOM     26  H   UNL     1      -4.797  -2.310  -0.408  0.00  0.00    +0.295 HD
ENDBRANCH  23  25
ENDBRANCH   6  23
TORSDOF 6
