REMARK  Name = 
REMARK  10 active torsions:
REMARK  status: ('A' for Active; 'I' for Inactive)
REMARK    1  A    between atoms: C_2  and  C_4
REMARK    2  A    between atoms: C_7  and  O_8
REMARK    3  A    between atoms: O_8  and  C_9
REMARK    4  A    between atoms: C_9  and  C_10
REMARK    5  A    between atoms: C_10  and  C_11
REMARK    6  A    between atoms: C_11  and  C_12
REMARK    7  A    between atoms: C_12  and  C_13
REMARK    8  A    between atoms: C_13  and  O_14
REMARK    9  A    between atoms: O_14  and  C_15
REMARK   10  A    between atoms: C_18  and  C_21
REMARK                            x       y       z     vdW  Elec       q    Type
REMARK                         _______ _______ _______ _____ _____    ______ ____
ROOT
ATOM      1  C   UNL     1      -0.036  -0.205   0.258  0.00  0.00    +0.007 C 
ENDROOT
BRANCH   1   2
ATOM      2  C   UNL     1       0.512  -1.007  -0.930  0.00  0.00    +0.041 C 
BRANCH   2   3
ATOM      3  C   UNL     1       1.927  -0.567  -1.303  0.00  0.00    +0.229 C 
BRANCH   3   4
ATOM      4  O   UNL     1       2.831  -0.884  -0.247  0.00  0.00    -0.492 OA
BRANCH   4   8
ATOM      5  C   UNL     1       6.981  -0.098  -0.223  0.00  0.00    +0.014 A 
ATOM      6  C   UNL     1       6.203   0.294  -1.327  0.00  0.00    +0.015 A 
ATOM      7  C   UNL     1       4.828   0.042  -1.352  0.00  0.00    +0.046 A 
ATOM      8  C   UNL     1       4.206  -0.609  -0.270  0.00  0.00    +0.121 A 
ATOM      9  C   UNL     1       4.981  -1.000   0.827  0.00  0.00    +0.046 A 
ATOM     10  C   UNL     1       6.356  -0.751   0.853  0.00  0.00    +0.015 A 
BRANCH   5  12
ATOM     11  N   UNL     1       9.332  -0.791   0.395  0.00  0.00    -0.343 N 
ATOM     12  C   UNL     1       8.443   0.162  -0.192  0.00  0.00    +0.116 C 
ATOM     13  N   UNL     1       8.934   1.257  -0.682  0.00  0.00    -0.285 NA
ATOM     14  H   UNL     1       8.988  -1.718   0.730  0.00  0.00    +0.144 HD
ATOM     15  H   UNL     1      10.356  -0.594   0.449  0.00  0.00    +0.144 HD
ATOM     16  H   UNL     1       8.341   2.006  -1.105  0.00  0.00    +0.188 HD
ENDBRANCH   5  12
ENDBRANCH   4   8
ENDBRANCH   3   4
ENDBRANCH   2   3
ENDBRANCH   1   2
BRANCH   1  17
ATOM     17  C   UNL     1      -1.460  -0.648   0.608  0.00  0.00    +0.041 C 
BRANCH  17  18
ATOM     18  C   UNL     1      -2.017   0.162   1.783  0.00  0.00    +0.229 C 
BRANCH  18  19
ATOM     19  O   UNL     1      -3.341  -0.264   2.105  0.00  0.00    -0.492 OA
BRANCH  19  20
ATOM     20  C   UNL     1      -4.498   0.034   1.366  0.00  0.00    +0.121 A 
ATOM     21  C   UNL     1      -5.699  -0.569   1.751  0.00  0.00    +0.046 A 
ATOM     22  C   UNL     1      -6.881  -0.316   1.049  0.00  0.00    +0.015 A 
ATOM     23  C   UNL     1      -6.882   0.556  -0.053  0.00  0.00    +0.014 A 
ATOM     24  C   UNL     1      -5.677   1.169  -0.436  0.00  0.00    +0.015 A 
ATOM     25  C   UNL     1      -4.495   0.913   0.266  0.00  0.00    +0.046 A 
BRANCH  23  26
ATOM     26  C   UNL     1      -8.134   0.826  -0.805  0.00  0.00    +0.116 C 
ATOM     27  N   UNL     1      -8.427   2.138  -1.290  0.00  0.00    -0.343 N 
ATOM     28  N   UNL     1      -8.983  -0.124  -1.044  0.00  0.00    -0.285 NA
ATOM     29  H   UNL     1      -7.831   2.951  -1.050  0.00  0.00    +0.144 HD
ATOM     30  H   UNL     1      -7.824   2.964  -1.048  0.00  0.00    +0.144 HD
ATOM     31  H   UNL     1      -8.829  -1.110  -0.736  0.00  0.00    +0.188 HD
ENDBRANCH  23  26
ENDBRANCH  19  20
ENDBRANCH  18  19
ENDBRANCH  17  18
ENDBRANCH   1  17
TORSDOF 10
