REMARK  Name = 
REMARK  27 active torsions:
REMARK  status: ('A' for Active; 'I' for Inactive)
REMARK    1  A    between atoms: C_1  and  S_2
REMARK    2  A    between atoms: S_2  and  C_3
REMARK    3  A    between atoms: C_3  and  C_4
REMARK    4  A    between atoms: C_4  and  C_5
REMARK    5  A    between atoms: C_5  and  N_6
REMARK    6  A    between atoms: C_5  and  C_33
REMARK    7  A    between atoms: C_7  and  C_9
REMARK    8  A    between atoms: C_9  and  C_10
REMARK    9  A    between atoms: C_9  and  N_20
REMARK   10  A    between atoms: C_10  and  C_11
REMARK   11  A    between atoms: C_21  and  C_23
REMARK   12  A    between atoms: C_23  and  C_24
REMARK   13  A    between atoms: C_24  and  N_25
REMARK   14  A    between atoms: C_26  and  O_28
REMARK   15  A    between atoms: O_28  and  C_29
REMARK   16  A    between atoms: C_29  and  C_30
REMARK   17  A    between atoms: C_30  and  C_31
REMARK   18  A    between atoms: C_30  and  C_32
REMARK   19  A    between atoms: N_35  and  C_36
REMARK   20  A    between atoms: C_36  and  C_37
REMARK   21  A    between atoms: C_36  and  C_41
REMARK   22  A    between atoms: C_37  and  C_38
REMARK   23  A    between atoms: C_38  and  O_39
REMARK   24  A    between atoms: N_43  and  C_44
REMARK   25  A    between atoms: C_44  and  C_45
REMARK   26  A    between atoms: C_44  and  C_52
REMARK   27  A    between atoms: C_45  and  C_46
REMARK                            x       y       z     vdW  Elec       q    Type
REMARK                         _______ _______ _______ _____ _____    ______ ____
ROOT
ATOM      1  C   UNL     1      -1.553  -1.754   1.120  0.00  0.00    +0.160 C 
ENDROOT
BRANCH   1   2
ATOM      2  N   UNL     1      -0.242  -1.699   0.453  0.00  0.00    -0.302 N 
ATOM      3  C   UNL     1       0.690  -0.605   0.479  0.00  0.00    +0.234 C 
ATOM      4  O   UNL     1       0.325   0.529   0.895  0.00  0.00    -0.274 OA
ATOM      5  H   UNL     1      -0.018  -2.505  -0.173  0.00  0.00    +0.150 HD
BRANCH   3   6
ATOM      6  C   UNL     1       2.101  -0.805  -0.035  0.00  0.00    +0.163 C 
BRANCH   6   7
ATOM      7  N   UNL     1       2.843   0.461  -0.013  0.00  0.00    -0.304 N 
ATOM      8  C   UNL     1       3.771   0.834  -1.042  0.00  0.00    +0.215 C 
ATOM      9  O   UNL     1       3.767   0.225  -2.147  0.00  0.00    -0.276 OA
ATOM     10  H   UNL     1       2.869   1.003   0.882  0.00  0.00    +0.149 HD
BRANCH   8  11
ATOM     11  C   UNL     1       4.733   1.964  -0.792  0.00  0.00    +0.114 C 
BRANCH  11  12
ATOM     12  C   UNL     1       5.752   2.141  -1.925  0.00  0.00    +0.116 C 
BRANCH  12  13
ATOM     13  N   UNL     1       6.667   3.241  -1.629  0.00  0.00    -0.281 N 
ATOM     14  C   UNL     1       7.760   3.120  -0.712  0.00  0.00    +0.400 C 
ATOM     15  O   UNL     1       7.944   2.043  -0.080  0.00  0.00    -0.226 OA
ATOM     16  H   UNL     1       6.566   4.132  -2.163  0.00  0.00    +0.152 HD
BRANCH  14  17
ATOM     17  O   UNL     1       8.628   4.202  -0.543  0.00  0.00    -0.450 OA
BRANCH  17  18
ATOM     18  C   UNL     1       9.727   4.195   0.368  0.00  0.00    +0.236 C 
BRANCH  18  19
ATOM     19  C   UNL     1       9.250   4.383   1.820  0.00  0.00    +0.021 C 
ATOM     20  C   UNL     1       8.541   5.732   1.998  0.00  0.00    +0.010 C 
ATOM     21  C   UNL     1      10.434   4.273   2.787  0.00  0.00    +0.010 C 
ENDBRANCH  18  19
ENDBRANCH  17  18
ENDBRANCH  14  17
ENDBRANCH  12  13
ENDBRANCH  11  12
ENDBRANCH   8  11
ENDBRANCH   6   7
BRANCH   6  22
ATOM     22  C   UNL     1       2.880  -1.849   0.798  0.00  0.00    +0.069 C 
BRANCH  22  23
ATOM     23  C   UNL     1       2.487  -3.265   0.482  0.00  0.00    -0.020 A 
ATOM     24  C   UNL     1       1.816  -4.150   1.323  0.00  0.00    +0.087 A 
ATOM     25  N   UNL     1       1.601  -5.330   0.698  0.00  0.00    -0.360 N 
ATOM     26  C   UNL     1       2.138  -5.203  -0.529  0.00  0.00    +0.047 A 
ATOM     27  C   UNL     1       2.163  -6.160  -1.543  0.00  0.00    +0.026 A 
ATOM     28  C   UNL     1       2.793  -5.818  -2.755  0.00  0.00    +0.002 A 
ATOM     29  C   UNL     1       3.375  -4.541  -2.923  0.00  0.00    +0.001 A 
ATOM     30  C   UNL     1       3.329  -3.593  -1.885  0.00  0.00    +0.010 A 
ATOM     31  C   UNL     1       2.695  -3.960  -0.696  0.00  0.00    +0.003 A 
ATOM     32  H   UNL     1       1.116  -6.167   1.094  0.00  0.00    +0.165 HD
ENDBRANCH  22  23
ENDBRANCH   6  22
ENDBRANCH   3   6
ENDBRANCH   1   2
BRANCH   1  33
ATOM     33  C   UNL     1      -2.631  -1.280   0.182  0.00  0.00    +0.234 C 
ATOM     34  O   UNL     1      -2.529  -0.149  -0.367  0.00  0.00    -0.274 OA
ATOM     35  N   UNL     1      -3.782  -2.104  -0.060  0.00  0.00    -0.302 N 
ATOM     36  H   UNL     1      -3.910  -2.965   0.524  0.00  0.00    +0.150 HD
BRANCH  35  37
ATOM     37  C   UNL     1      -4.846  -1.735  -0.996  0.00  0.00    +0.169 C 
BRANCH  37  38
ATOM     38  C   UNL     1      -5.937  -0.997  -0.264  0.00  0.00    +0.234 C 
ATOM     39  O   UNL     1      -6.260  -1.352   0.903  0.00  0.00    -0.274 OA
ATOM     40  N   UNL     1      -6.653   0.060  -0.921  0.00  0.00    -0.302 N 
ATOM     41  H   UNL     1      -6.423   0.265  -1.923  0.00  0.00    +0.150 HD
BRANCH  40  42
ATOM     42  C   UNL     1      -7.713   0.823  -0.251  0.00  0.00    +0.163 C 
BRANCH  42  43
ATOM     43  C   UNL     1      -8.930  -0.041  -0.065  0.00  0.00    +0.231 C 
ATOM     44  N   UNL     1      -9.665  -0.001   1.160  0.00  0.00    -0.328 N 
ATOM     45  O   UNL     1      -9.332  -0.774  -1.008  0.00  0.00    -0.274 OA
ATOM     46  H   UNL     1      -9.373   0.625   1.944  0.00  0.00    +0.145 HD
ATOM     47  H   UNL     1     -10.513  -0.597   1.284  0.00  0.00    +0.145 HD
ENDBRANCH  42  43
BRANCH  42  48
ATOM     48  C   UNL     1      -8.091   2.075  -1.063  0.00  0.00    +0.067 C 
BRANCH  48  49
ATOM     49  C   UNL     1      -6.944   3.050  -1.152  0.00  0.00    -0.045 A 
ATOM     50  C   UNL     1      -6.156   3.122  -2.315  0.00  0.00    +0.004 A 
ATOM     51  C   UNL     1      -5.081   4.013  -2.382  0.00  0.00    +0.000 A 
ATOM     52  C   UNL     1      -4.786   4.837  -1.294  0.00  0.00    +0.000 A 
ATOM     53  C   UNL     1      -5.566   4.775  -0.136  0.00  0.00    +0.000 A 
ATOM     54  C   UNL     1      -6.639   3.883  -0.062  0.00  0.00    +0.004 A 
ENDBRANCH  48  49
ENDBRANCH  42  48
ENDBRANCH  40  42
ENDBRANCH  37  38
BRANCH  37  55
ATOM     55  C   UNL     1      -5.391  -3.001  -1.680  0.00  0.00    +0.152 C 
BRANCH  55  56
ATOM     56  C   UNL     1      -6.406  -2.683  -2.739  0.00  0.00    +0.307 C 
ATOM     57  O   UNL     1      -6.037  -2.184  -3.833  0.00  0.00    -0.251 OA
BRANCH  56  58
ATOM     58  O   UNL     1      -7.761  -2.918  -2.518  0.00  0.00    -0.481 OA
ATOM     59  H   UNL     1      -8.087  -3.312  -1.645  0.00  0.00    +0.295 HD
ENDBRANCH  56  58
ENDBRANCH  55  56
ENDBRANCH  37  55
ENDBRANCH  35  37
ENDBRANCH   1  33
BRANCH   1  60
ATOM     60  C   UNL     1      -1.628  -0.996   2.466  0.00  0.00    +0.042 C 
BRANCH  60  61
ATOM     61  C   UNL     1      -0.502  -1.373   3.449  0.00  0.00    +0.071 C 
BRANCH  61  63
ATOM     62  C   UNL     1      -1.344  -3.756   4.417  0.00  0.00    +0.084 C 
ATOM     63  S   UNL     1      -1.164  -2.042   5.018  0.00  0.00    -0.164 S 
ENDBRANCH  61  63
ENDBRANCH  60  61
ENDBRANCH   1  60
TORSDOF 24
