REMARK  Name = 
REMARK  7 active torsions:
REMARK  status: ('A' for Active; 'I' for Inactive)
REMARK    1  A    between atoms: C_1  and  C_2
REMARK    2  A    between atoms: C_8  and  O_9
REMARK    3  A    between atoms: C_12  and  C_13
REMARK    4  A    between atoms: N_16  and  C_17
REMARK    5  A    between atoms: C_17  and  C_18
REMARK    6  A    between atoms: C_19  and  C_20
REMARK    7  A    between atoms: C_19  and  C_21
REMARK                            x       y       z     vdW  Elec       q    Type
REMARK                         _______ _______ _______ _____ _____    ______ ____
ROOT
ATOM      1  C   UNL     1      -1.992  -2.775  -1.100  0.00  0.00    +0.010 C 
ATOM      2  C   UNL     1      -1.000  -1.999  -0.206  0.00  0.00    +0.014 C 
ATOM      3  C   UNL     1       0.109  -1.319  -1.032  0.00  0.00    +0.065 C 
ATOM      4  C   UNL     1      -0.489  -0.257  -1.994  0.00  0.00    +0.054 C 
ATOM      5  C   UNL     1      -1.633   0.549  -1.413  0.00  0.00    -0.042 A 
ATOM      6  C   UNL     1      -2.121   1.629  -2.164  0.00  0.00    +0.007 A 
ATOM      7  C   UNL     1      -3.170   2.412  -1.685  0.00  0.00    +0.045 A 
ATOM      8  C   UNL     1      -3.743   2.132  -0.443  0.00  0.00    +0.117 A 
ATOM      9  C   UNL     1      -3.274   1.054   0.312  0.00  0.00    +0.049 A 
ATOM     10  C   UNL     1      -2.241   0.221  -0.171  0.00  0.00    -0.034 A 
ATOM     11  C   UNL     1      -1.671  -0.917   0.693  0.00  0.00    -0.002 C 
ATOM     12  C   UNL     1      -2.760  -1.583   1.574  0.00  0.00    +0.016 C 
ATOM     13  C   UNL     1      -0.580  -0.327   1.625  0.00  0.00    +0.027 C 
ATOM     14  C   UNL     1       0.622   0.224   0.839  0.00  0.00    +0.086 C 
ATOM     15  N   UNL     1       1.145  -0.783  -0.109  0.00  0.00    -0.295 NA
ENDROOT
BRANCH   8  16
ATOM     16  O   UNL     1      -4.776   2.922   0.055  0.00  0.00    -0.507 OA
ATOM     17  H   UNL     1      -5.138   3.712  -0.466  0.00  0.00    +0.292 HD
ENDBRANCH   8  16
BRANCH  15  18
ATOM     18  C   UNL     1       2.356  -0.304  -0.805  0.00  0.00    +0.112 C 
BRANCH  18  19
ATOM     19  C   UNL     1       3.559  -0.481   0.090  0.00  0.00    -0.013 C 
ATOM     20  C   UNL     1       4.309   0.526   0.589  0.00  0.00    -0.078 C 
ATOM     21  C   UNL     1       5.463   0.180   1.494  0.00  0.00    +0.038 C 
ATOM     22  C   UNL     1       4.026   1.974   0.267  0.00  0.00    +0.038 C 
ENDBRANCH  18  19
ENDBRANCH  15  18
TORSDOF 3
