REMARK  Name = 
REMARK  8 active torsions:
REMARK  status: ('A' for Active; 'I' for Inactive)
REMARK    1  A    between atoms: C_1  and  N_2
REMARK    2  A    between atoms: N_9  and  C_10
REMARK    3  A    between atoms: C_10  and  C_11
REMARK    4  A    between atoms: C_11  and  C_12
REMARK    5  A    between atoms: C_12  and  C_13
REMARK    6  A    between atoms: C_13  and  C_14
REMARK    7  A    between atoms: C_14  and  C_15
REMARK    8  A    between atoms: N_19  and  C_20
REMARK                            x       y       z     vdW  Elec       q    Type
REMARK                         _______ _______ _______ _____ _____    ______ ____
ROOT
ATOM      1  C   UNL     1      -4.112  -2.803   0.813  0.00  0.00    +0.150 C 
ATOM      2  N   UNL     1      -4.048  -1.379   0.500  0.00  0.00    -0.328 N 
ATOM      3  C   UNL     1      -5.087  -0.562   0.198  0.00  0.00    +0.202 A 
ATOM      4  N   UNL     1      -4.707   0.720  -0.042  0.00  0.00    -0.218 NA
ATOM      5  C   UNL     1      -3.369   0.672   0.126  0.00  0.00    +0.168 A 
ATOM      6  C   UNL     1      -2.971  -0.578   0.452  0.00  0.00    +0.151 A 
ATOM      7  C   UNL     1      -1.629  -0.853   0.679  0.00  0.00    +0.282 A 
ATOM      8  O   UNL     1      -1.255  -2.024   0.965  0.00  0.00    -0.265 OA
ATOM      9  N   UNL     1      -0.726   0.182   0.583  0.00  0.00    -0.259 N 
ATOM     10  C   UNL     1      -1.158   1.452   0.233  0.00  0.00    +0.333 A 
ATOM     11  O   UNL     1      -0.321   2.394   0.133  0.00  0.00    -0.246 OA
ATOM     12  N   UNL     1      -2.491   1.703  -0.010  0.00  0.00    -0.280 N 
ATOM     13  C   UNL     1      -2.962   3.055  -0.341  0.00  0.00    +0.155 C 
ENDROOT
BRANCH   9  14
ATOM     14  C   UNL     1       0.711  -0.074   0.803  0.00  0.00    +0.130 C 
BRANCH  14  15
ATOM     15  C   UNL     1       1.393  -0.438  -0.523  0.00  0.00    +0.022 C 
BRANCH  15  16
ATOM     16  C   UNL     1       2.863  -0.847  -0.344  0.00  0.00    +0.009 C 
BRANCH  16  17
ATOM     17  C   UNL     1       3.767   0.339   0.021  0.00  0.00    +0.074 C 
BRANCH  17  18
ATOM     18  C   UNL     1       5.212  -0.083   0.045  0.00  0.00    +0.130 C 
ATOM     19  C   UNL     1       6.197   0.440  -0.958  0.00  0.00    +0.086 C 
ATOM     20  O   UNL     1       5.597  -0.862   0.905  0.00  0.00    -0.298 OA
ENDBRANCH  17  18
ENDBRANCH  16  17
ENDBRANCH  15  16
ENDBRANCH  14  15
ENDBRANCH   9  14
TORSDOF 5
