REMARK  Name = 
REMARK  7 active torsions:
REMARK  status: ('A' for Active; 'I' for Inactive)
REMARK    1  A    between atoms: C_1  and  C_2
REMARK    2  A    between atoms: C_2  and  C_3
REMARK    3  A    between atoms: C_3  and  C_4
REMARK    4  A    between atoms: C_4  and  C_5
REMARK    5  A    between atoms: C_4  and  C_6
REMARK    6  A    between atoms: C_6  and  C_7
REMARK    7  A    between atoms: C_7  and  C_8
REMARK                            x       y       z     vdW  Elec       q    Type
REMARK                         _______ _______ _______ _____ _____    ______ ____
ROOT
ATOM      1  C   UNL     1      -0.963  -0.239  -0.429  0.00  0.00    +0.126 C 
ATOM      2  C   UNL     1      -0.698  -1.309  -1.499  0.00  0.00    +0.236 C 
ATOM      3  O   UNL     1      -0.008  -1.042  -2.521  0.00  0.00    -0.274 OA
ATOM      4  N   UNL     1      -1.143  -2.657  -1.312  0.00  0.00    -0.239 N 
ATOM      5  C   UNL     1      -2.145  -2.956  -0.344  0.00  0.00    +0.312 C 
ATOM      6  O   UNL     1      -2.498  -4.148  -0.143  0.00  0.00    -0.252 OA
ATOM      7  N   UNL     1      -2.775  -1.892   0.363  0.00  0.00    -0.239 N 
ATOM      8  C   UNL     1      -2.353  -0.540   0.153  0.00  0.00    +0.236 C 
ATOM      9  O   UNL     1      -3.122   0.389   0.516  0.00  0.00    -0.274 OA
ATOM     10  H   UNL     1      -0.778  -3.416  -1.930  0.00  0.00    +0.159 HD
ATOM     11  H   UNL     1      -3.606  -2.090   0.964  0.00  0.00    +0.159 HD
ENDROOT
BRANCH   1  12
ATOM     12  C   UNL     1       0.121  -0.433   0.712  0.00  0.00    +0.010 C 
ATOM     13  C   UNL     1      -0.138   0.325   2.032  0.00  0.00    +0.009 C 
BRANCH  12  14
ATOM     14  C   UNL     1       1.620  -0.374   0.282  0.00  0.00    +0.004 C 
BRANCH  14  16
ATOM     15  C   UNL     1       3.745   0.929  -0.119  0.00  0.00    +0.004 C 
ATOM     16  C   UNL     1       2.245   1.026   0.151  0.00  0.00    -0.003 C 
ENDBRANCH  14  16
ENDBRANCH  12  14
ENDBRANCH   1  12
BRANCH   1  17
ATOM     17  C   UNL     1      -0.971   1.162  -1.145  0.00  0.00    +0.022 C 
ATOM     18  C   UNL     1      -1.050   2.425  -0.274  0.00  0.00    +0.005 C 
ENDBRANCH   1  17
TORSDOF 4
