REMARK  Name = 
REMARK  5 active torsions:
REMARK  status: ('A' for Active; 'I' for Inactive)
REMARK    1  A    between atoms: O5*_1  and  C5*_2
REMARK    2  A    between atoms: C5*_2  and  C4*_3
REMARK    3  A    between atoms: C1*_5  and  N_9
REMARK    4  A    between atoms: C3*_7  and  O3*_8
REMARK    5  A    between atoms: C_18  and  O_19
REMARK                            x       y       z     vdW  Elec       q    Type
REMARK                         _______ _______ _______ _____ _____    ______ ____
ROOT
ATOM      1  N   UNL     1       0.412  -1.106  -1.012  0.00  0.00    -0.288 N 
ATOM      2  C   UNL     1       1.233  -2.085  -1.440  0.00  0.00    +0.203 A 
ATOM      3  N   UNL     1       2.475  -1.988  -0.920  0.00  0.00    -0.236 NA
ATOM      4  C   UNL     1       2.426  -0.896  -0.129  0.00  0.00    +0.115 A 
ATOM      5  C   UNL     1       1.152  -0.358  -0.173  0.00  0.00    +0.162 A 
ATOM      6  N   UNL     1       0.615   0.747   0.573  0.00  0.00    -0.221 NA
ATOM      7  C   UNL     1       1.198   1.583   1.382  0.00  0.00    +0.184 C 
ATOM      8  N   UNL     1       2.600   1.577   1.677  0.00  0.00    -0.332 N 
ATOM      9  C   UNL     1       3.630   1.078   0.774  0.00  0.00    +0.140 C 
ATOM     10  C   UNL     1       3.590  -0.443   0.696  0.00  0.00    +0.183 C 
ATOM     11  H   UNL     1       2.912   2.126   2.509  0.00  0.00    +0.147 HD
ENDROOT
BRANCH   1  14
ATOM     12  C4* UNL     1      -2.681   0.529  -0.979  0.00  0.00    +0.175 C 
ATOM     13  O4* UNL     1      -1.369   0.371  -1.481  0.00  0.00    -0.348 OA
ATOM     14  C1* UNL     1      -1.016  -0.982  -1.321  0.00  0.00    +0.225 C 
ATOM     15  C2* UNL     1      -1.865  -1.573  -0.213  0.00  0.00    +0.088 C 
ATOM     16  C3* UNL     1      -3.136  -0.780  -0.315  0.00  0.00    +0.150 C 
BRANCH  16  17
ATOM     17  O3* UNL     1      -4.050  -1.458  -1.139  0.00  0.00    -0.389 OA
ATOM     18  H3* UNL     1      -4.924  -1.002  -1.023  0.00  0.00    +0.210 HD
ENDBRANCH  16  17
BRANCH  12  19
ATOM     19  C5* UNL     1      -2.709   1.698   0.013  0.00  0.00    +0.190 C 
BRANCH  19  20
ATOM     20  O5* UNL     1      -2.255   2.864  -0.617  0.00  0.00    -0.392 OA
ATOM     21  H5* UNL     1      -2.275   3.575   0.075  0.00  0.00    +0.210 HD
ENDBRANCH  19  20
ENDBRANCH  12  19
ENDBRANCH   1  14
BRANCH  10  22
ATOM     22  O   UNL     1       3.514  -0.994   1.985  0.00  0.00    -0.384 OA
ATOM     23  H   UNL     1       3.754  -1.954   1.901  0.00  0.00    +0.210 HD
ENDBRANCH  10  22
TORSDOF 5
