REMARK  Name = 
REMARK  8 active torsions:
REMARK  status: ('A' for Active; 'I' for Inactive)
REMARK    1  A    between atoms: C_1  and  N_2
REMARK    2  A    between atoms: N_2  and  C_3
REMARK    3  A    between atoms: C_3  and  C_4
REMARK    4  A    between atoms: C_4  and  C_5
REMARK    5  A    between atoms: C_5  and  C_6
REMARK    6  A    between atoms: C_6  and  C_7
REMARK    7  A    between atoms: C_7  and  N_8
REMARK    8  A    between atoms: N_8  and  C_9
REMARK                            x       y       z     vdW  Elec       q    Type
REMARK                         _______ _______ _______ _____ _____    ______ ____
ROOT
ATOM      1  C   UNL     1       0.070   0.637  -1.655  0.00  0.00    -0.004 C 
ENDROOT
BRANCH   1   2
ATOM      2  C   UNL     1      -1.163   0.267  -0.814  0.00  0.00    -0.018 C 
BRANCH   2   3
ATOM      3  C   UNL     1      -2.341   1.222  -1.117  0.00  0.00    -0.075 C 
BRANCH   3   5
ATOM      4  C   UNL     1      -4.585   1.998  -0.728  0.00  0.00    -0.092 C 
ATOM      5  N   UNL     1      -3.554   1.037  -0.258  0.00  0.00    +0.378 N 
ATOM      6  C   UNL     1      -4.090  -0.345  -0.337  0.00  0.00    -0.076 C 
ATOM      7  C   UNL     1      -3.605  -1.113   0.885  0.00  0.00    -0.020 C 
ATOM      8  C   UNL     1      -3.175  -0.065   1.893  0.00  0.00    -0.020 C 
ATOM      9  C   UNL     1      -3.260   1.282   1.179  0.00  0.00    -0.076 C 
ENDBRANCH   3   5
ENDBRANCH   2   3
ENDBRANCH   1   2
BRANCH   1  10
ATOM     10  C   UNL     1       1.216  -0.377  -1.504  0.00  0.00    -0.018 C 
BRANCH  10  11
ATOM     11  C   UNL     1       1.809  -0.396  -0.070  0.00  0.00    -0.075 C 
BRANCH  11  12
ATOM     12  N   UNL     1       3.148  -1.061   0.051  0.00  0.00    +0.378 N 
ATOM     13  C   UNL     1       3.144  -2.397  -0.595  0.00  0.00    -0.092 C 
ATOM     14  C   UNL     1       4.231  -0.205  -0.490  0.00  0.00    -0.076 C 
ATOM     15  C   UNL     1       4.714   0.704   0.636  0.00  0.00    -0.020 C 
ATOM     16  C   UNL     1       4.169   0.097   1.916  0.00  0.00    -0.020 C 
ATOM     17  C   UNL     1       3.498  -1.198   1.486  0.00  0.00    -0.076 C 
ENDBRANCH  11  12
ENDBRANCH  10  11
ENDBRANCH   1  10
TORSDOF 6
