REMARK  Name = 
REMARK  16 active torsions:
REMARK  status: ('A' for Active; 'I' for Inactive)
REMARK    1  A    between atoms: O_1  and  C_2
REMARK    2  A    between atoms: C_5  and  O_6
REMARK    3  A    between atoms: O_6  and  C_7
REMARK    4  A    between atoms: C_10  and  O_11
REMARK    5  A    between atoms: C_12  and  O_13
REMARK    6  A    between atoms: O_13  and  S_14
REMARK    7  A    between atoms: S_14  and  O_15
REMARK    8  A    between atoms: C_18  and  O_19
REMARK    9  A    between atoms: O_19  and  S_20
REMARK   10  A    between atoms: S_20  and  O_21
REMARK   11  A    between atoms: C_24  and  O_25
REMARK   12  A    between atoms: O_25  and  S_26
REMARK   13  A    between atoms: S_26  and  O_27
REMARK   14  A    between atoms: C_30  and  O_31
REMARK   15  A    between atoms: O_31  and  S_32
REMARK   16  A    between atoms: S_32  and  O_33
REMARK                            x       y       z     vdW  Elec       q    Type
REMARK                         _______ _______ _______ _____ _____    ______ ____
ROOT
ATOM      1  O   UNL     1       0.257  -0.737  -0.560  0.00  0.00    -0.340 OA
ENDROOT
BRANCH   1   5
ATOM      2  C   UNL     1      -2.927  -0.728   1.584  0.00  0.00    +0.174 C 
ATOM      3  C   UNL     1      -1.406  -0.781   1.851  0.00  0.00    +0.197 C 
ATOM      4  O   UNL     1      -0.758   0.317   1.242  0.00  0.00    -0.346 OA
ATOM      5  C   UNL     1      -0.751   0.190  -0.176  0.00  0.00    +0.285 C 
ATOM      6  C   UNL     1      -2.120  -0.269  -0.759  0.00  0.00    +0.241 C 
ATOM      7  C   UNL     1      -3.243  -0.000   0.255  0.00  0.00    +0.218 C 
BRANCH   2   8
ATOM      8  O   UNL     1      -3.607  -0.118   2.653  0.00  0.00    -0.387 OA
ATOM      9  H   UNL     1      -3.228   0.793   2.768  0.00  0.00    +0.210 HD
ENDBRANCH   2   8
BRANCH   6  10
ATOM     10  O   UNL     1      -2.392   0.456  -1.945  0.00  0.00    -0.205 OA
BRANCH  10  11
ATOM     11  S   UNL     1      -2.400  -0.582  -3.287  0.00  0.00    +0.208 S 
ATOM     12  O   UNL     1      -3.474  -1.623  -3.131  0.00  0.00    -0.118 OA
ATOM     13  O   UNL     1      -2.689   0.226  -4.519  0.00  0.00    -0.118 OA
BRANCH  11  14
ATOM     14  O   UNL     1      -0.898  -1.319  -3.466  0.00  0.00    -0.231 OA
ATOM     15  H   UNL     1      -0.948  -2.152  -2.932  0.00  0.00    +0.247 HD
ENDBRANCH  11  14
ENDBRANCH  10  11
ENDBRANCH   6  10
BRANCH   7  16
ATOM     16  O   UNL     1      -4.463  -0.497  -0.263  0.00  0.00    -0.207 OA
BRANCH  16  17
ATOM     17  S   UNL     1      -5.601   0.754  -0.389  0.00  0.00    +0.208 S 
ATOM     18  O   UNL     1      -5.911   1.301   0.976  0.00  0.00    -0.118 OA
ATOM     19  O   UNL     1      -6.858   0.203  -0.999  0.00  0.00    -0.118 OA
BRANCH  17  20
ATOM     20  O   UNL     1      -5.000   1.978  -1.375  0.00  0.00    -0.231 OA
ATOM     21  H   UNL     1      -5.709   2.670  -1.383  0.00  0.00    +0.247 HD
ENDBRANCH  17  20
ENDBRANCH  16  17
ENDBRANCH   7  16
ENDBRANCH   1   5
BRANCH   1  22
ATOM     22  C   UNL     1       1.382  -0.113  -1.161  0.00  0.00    +0.181 C 
ATOM     23  C   UNL     1       2.165  -1.190  -1.946  0.00  0.00    +0.197 C 
ATOM     24  O   UNL     1       3.558  -0.959  -1.883  0.00  0.00    -0.346 OA
ATOM     25  C   UNL     1       4.045  -1.234  -0.578  0.00  0.00    +0.281 C 
ATOM     26  C   UNL     1       3.226  -0.507   0.536  0.00  0.00    +0.241 C 
ATOM     27  C   UNL     1       2.292   0.550  -0.091  0.00  0.00    +0.219 C 
BRANCH  25  28
ATOM     28  O   UNL     1       5.386  -0.823  -0.523  0.00  0.00    -0.365 OA
ATOM     29  H   UNL     1       5.795  -1.274   0.262  0.00  0.00    +0.213 HD
ENDBRANCH  25  28
BRANCH  26  30
ATOM     30  O   UNL     1       2.448  -1.471   1.223  0.00  0.00    -0.205 OA
BRANCH  30  31
ATOM     31  S   UNL     1       2.454  -1.162   2.891  0.00  0.00    +0.208 S 
ATOM     32  O   UNL     1       1.494  -2.107   3.557  0.00  0.00    -0.118 OA
ATOM     33  O   UNL     1       3.833  -1.390   3.444  0.00  0.00    -0.118 OA
BRANCH  31  34
ATOM     34  O   UNL     1       1.968   0.418   3.200  0.00  0.00    -0.231 OA
ATOM     35  H   UNL     1       1.993   0.506   4.186  0.00  0.00    +0.247 HD
ENDBRANCH  31  34
ENDBRANCH  30  31
ENDBRANCH  26  30
BRANCH  27  36
ATOM     36  O   UNL     1       3.074   1.550  -0.722  0.00  0.00    -0.207 OA
BRANCH  36  37
ATOM     37  S   UNL     1       3.098   2.961   0.220  0.00  0.00    +0.208 S 
ATOM     38  O   UNL     1       1.723   3.568   0.256  0.00  0.00    -0.118 OA
ATOM     39  O   UNL     1       4.054   3.940  -0.401  0.00  0.00    -0.118 OA
BRANCH  37  40
ATOM     40  O   UNL     1       3.611   2.609   1.783  0.00  0.00    -0.231 OA
ATOM     41  H   UNL     1       3.470   3.446   2.293  0.00  0.00    +0.247 HD
ENDBRANCH  37  40
ENDBRANCH  36  37
ENDBRANCH  27  36
ENDBRANCH   1  22
TORSDOF 16
