REMARK  Name = 
REMARK  6 active torsions:
REMARK  status: ('A' for Active; 'I' for Inactive)
REMARK    1  A    between atoms: C_14  and  C_15
REMARK    2  A    between atoms: C_15  and  S_16
REMARK    3  A    between atoms: S_16  and  C_17
REMARK    4  A    between atoms: N_19  and  C_20
REMARK    5  A    between atoms: C_20  and  C_21
REMARK    6  A    between atoms: C_21  and  C_22
REMARK                            x       y       z     vdW  Elec       q    Type
REMARK                         _______ _______ _______ _____ _____    ______ ____
ROOT
ATOM      1  C   UNL     1      -0.641   0.582  -0.496  0.00  0.00    +0.068 C 
ATOM      2  C   UNL     1      -1.882   1.212   0.231  0.00  0.00    +0.056 C 
ATOM      3  C   UNL     1      -3.013   0.232   0.228  0.00  0.00    -0.021 A 
ATOM      4  C   UNL     1      -4.384   0.386   0.404  0.00  0.00    +0.087 A 
ATOM      5  N   UNL     1      -4.987  -0.834   0.416  0.00  0.00    -0.360 N 
ATOM      6  C   UNL     1      -3.996  -1.736   0.267  0.00  0.00    +0.047 A 
ATOM      7  C   UNL     1      -4.066  -3.128   0.272  0.00  0.00    +0.026 A 
ATOM      8  C   UNL     1      -2.850  -3.841   0.173  0.00  0.00    +0.002 A 
ATOM      9  C   UNL     1      -1.610  -3.154   0.081  0.00  0.00    +0.004 A 
ATOM     10  C   UNL     1      -1.582  -1.738   0.049  0.00  0.00    -0.033 A 
ATOM     11  C   UNL     1      -2.802  -1.103   0.158  0.00  0.00    +0.006 A 
ATOM     12  C   UNL     1      -0.339  -0.851   0.091  0.00  0.00    +0.037 C 
ATOM     13  C   UNL     1       0.860  -1.479  -0.632  0.00  0.00    +0.015 C 
ATOM     14  C   UNL     1       2.076  -0.542  -0.549  0.00  0.00    +0.013 C 
ATOM     15  C   UNL     1       1.707   0.834  -1.123  0.00  0.00    +0.089 C 
ATOM     16  N   UNL     1       0.570   1.445  -0.396  0.00  0.00    -0.298 NA
ATOM     17  H   UNL     1      -6.004  -1.030   0.545  0.00  0.00    +0.165 HD
ENDROOT
BRANCH  14  18
ATOM     18  C   UNL     1       3.287  -1.127  -1.304  0.00  0.00    +0.073 C 
BRANCH  18  19
ATOM     19  S   UNL     1       3.941  -2.634  -0.491  0.00  0.00    -0.164 S 
ATOM     20  C   UNL     1       5.041  -1.764   0.673  0.00  0.00    +0.084 C 
ENDBRANCH  18  19
ENDBRANCH  14  18
BRANCH  16  21
ATOM     21  C   UNL     1       0.346   2.823  -0.913  0.00  0.00    +0.084 C 
BRANCH  21  22
ATOM     22  C   UNL     1       0.262   3.828   0.243  0.00  0.00    +0.012 C 
ATOM     23  C   UNL     1       1.569   3.900   1.031  0.00  0.00    +0.005 C 
ENDBRANCH  21  22
ENDBRANCH  16  21
TORSDOF 4
