REMARK  Name = 
REMARK  4 active torsions:
REMARK  status: ('A' for Active; 'I' for Inactive)
REMARK    1  A    between atoms: C_1  and  C_2
REMARK    2  A    between atoms: C_1  and  C_15
REMARK    3  A    between atoms: C_2  and  C_3
REMARK    4  A    between atoms: C_2  and  C_9
REMARK                            x       y       z     vdW  Elec       q    Type
REMARK                         _______ _______ _______ _____ _____    ______ ____
ROOT
ATOM      1  C   UNL     1      -0.026   0.546  -0.249  0.00  0.00    -0.003 C 
ENDROOT
BRANCH   1   2
ATOM      2  C   UNL     1      -1.112  -0.602  -0.297  0.00  0.00    -0.008 C 
ATOM      3  C   UNL     1      -1.378  -1.333   1.044  0.00  0.00    +0.004 C 
ATOM      4  C   UNL     1      -2.498  -2.371   0.896  0.00  0.00    +0.000 C 
ATOM      5  C   UNL     1      -2.164  -3.383  -0.204  0.00  0.00    +0.000 C 
ATOM      6  C   UNL     1      -1.917  -2.676  -1.540  0.00  0.00    +0.000 C 
ATOM      7  C   UNL     1      -0.802  -1.629  -1.414  0.00  0.00    +0.004 C 
ENDBRANCH   1   2
BRANCH   1   8
ATOM      8  C   UNL     1      -0.628   1.992  -0.153  0.00  0.00    -0.008 C 
ATOM      9  C   UNL     1      -1.444   2.280   1.141  0.00  0.00    +0.004 C 
ATOM     10  C   UNL     1      -2.958   2.334   0.894  0.00  0.00    +0.000 C 
ATOM     11  C   UNL     1      -3.339   3.395  -0.159  0.00  0.00    +0.000 C 
ATOM     12  C   UNL     1      -2.238   3.656  -1.206  0.00  0.00    +0.000 C 
ATOM     13  C   UNL     1      -1.378   2.412  -1.448  0.00  0.00    +0.004 C 
ENDBRANCH   1   8
BRANCH   1  14
ATOM     14  C   UNL     1       1.108   0.353   0.810  0.00  0.00    +0.022 C 
BRANCH  14  15
ATOM     15  C   UNL     1       2.117  -0.777   0.486  0.00  0.00    +0.054 C 
ATOM     16  C   UNL     1       3.184  -0.905   1.615  0.00  0.00    +0.019 C 
ATOM     17  C   UNL     1       4.530  -0.310   1.198  0.00  0.00    +0.003 C 
ATOM     18  C   UNL     1       5.056  -0.976  -0.084  0.00  0.00    +0.015 C 
ATOM     19  C   UNL     1       3.919  -1.403  -1.035  0.00  0.00    +0.081 C 
ATOM     20  N   UNL     1       2.723  -0.571  -0.849  0.00  0.00    -0.313 NA
ATOM     21  H   UNL     1       2.997   0.433  -0.973  0.00  0.00    +0.122 HD
ENDBRANCH  14  15
ENDBRANCH   1  14
TORSDOF 4
