REMARK  Name = 
REMARK  13 active torsions:
REMARK  status: ('A' for Active; 'I' for Inactive)
REMARK    1  A    between atoms: CA_3  and  C_24
REMARK    2  A    between atoms: C_5  and  CA_7
REMARK    3  A    between atoms: CA_7  and  CB_8
REMARK    4  A    between atoms: CA_7  and  N_9
REMARK    5  A    between atoms: N_9  and  C_10
REMARK    6  A    between atoms: C_10  and  C_11
REMARK    7  A    between atoms: C_10  and  C_14
REMARK    8  A    between atoms: C_11  and  C_12
REMARK    9  A    between atoms: C_12  and  C_13
REMARK   10  A    between atoms: C_14  and  O_16
REMARK   11  A    between atoms: O_16  and  C_17
REMARK   12  A    between atoms: C_17  and  C_18
REMARK   13  A    between atoms: C_24  and  O_25
REMARK                            x       y       z     vdW  Elec       q    Type
REMARK                         _______ _______ _______ _____ _____    ______ ____
ROOT
ATOM      1  C   ALA A   1      -4.157   0.276   0.156  0.00  0.00    +0.012 C 
ATOM      2  C   ALA A   1      -3.363   1.583   0.286  0.00  0.00    +0.039 C 
ATOM      3  CA  ALA A   1      -1.932   1.264  -0.167  0.00  0.00    +0.185 C 
ATOM      4  N   ALA A   1      -1.855  -0.190  -0.297  0.00  0.00    -0.283 N 
ATOM      5  C   ALA A   1      -0.767  -0.904  -0.928  0.00  0.00    +0.233 C 
ATOM      6  O   ALA A   1      -0.832  -2.160  -1.030  0.00  0.00    -0.274 OA
ATOM      7  C   ALA A   1      -3.111  -0.849   0.037  0.00  0.00    +0.080 C 
ATOM      8  C   ALA A   1      -2.971  -1.652   1.343  0.00  0.00    +0.023 C 
ATOM      9  C   ALA A   1      -4.311  -2.289   1.759  0.00  0.00    +0.002 C 
ATOM     10  C   ALA A   1      -5.540  -1.411   1.437  0.00  0.00    +0.000 C 
ATOM     11  C   ALA A   1      -5.168   0.069   1.309  0.00  0.00    +0.005 C 
ENDROOT
BRANCH   5  12
ATOM     12  CA  ALA A   1       0.426  -0.189  -1.540  0.00  0.00    +0.138 C 
ATOM     13  CB  ALA A   1       0.268  -0.140  -3.059  0.00  0.00    +0.034 C 
BRANCH  12  14
ATOM     14  N   ALA A   1       1.702  -0.853  -1.203  0.00  0.00    -0.294 NA
ATOM     15  H   ALA A   1       1.629  -1.871  -1.440  0.00  0.00    +0.123 HD
BRANCH  14  16
ATOM     16  C   UNK A   0       2.077  -0.698   0.218  0.00  0.00    +0.164 C 
BRANCH  16  17
ATOM     17  C   UNK A   0       2.493   0.718   0.519  0.00  0.00    +0.324 C 
ATOM     18  O   UNK A   0       2.390   1.159   1.697  0.00  0.00    -0.249 OA
BRANCH  17  19
ATOM     19  O   UNK A   0       3.028   1.518  -0.498  0.00  0.00    -0.464 OA
BRANCH  19  20
ATOM     20  C   UNK A   0       3.520   2.838  -0.280  0.00  0.00    +0.229 C 
ATOM     21  C   UNK A   0       4.893   2.796   0.381  0.00  0.00    +0.048 C 
ENDBRANCH  19  20
ENDBRANCH  17  19
ENDBRANCH  16  17
BRANCH  16  22
ATOM     22  C   UNK A   0       3.199  -1.691   0.614  0.00  0.00    +0.030 C 
BRANCH  22  23
ATOM     23  C   UNK A   0       4.596  -1.401   0.024  0.00  0.00    -0.001 C 
ATOM     24  C   UNK A   0       4.668  -1.575  -1.492  0.00  0.00    +0.004 C 
ENDBRANCH  22  23
ENDBRANCH  16  22
ENDBRANCH  14  16
ENDBRANCH  12  14
ENDBRANCH   5  12
BRANCH   3  25
ATOM     25  C   ALA A   1      -0.926   1.767   0.838  0.00  0.00    +0.325 C 
ATOM     26  OXT ALA A   1      -0.772   1.166   1.935  0.00  0.00    -0.249 OA
BRANCH  25  27
ATOM     27  O   ALA A   1      -0.186   2.918   0.583  0.00  0.00    -0.479 OA
ATOM     28  H   ALA A   1      -0.291   3.429  -0.285  0.00  0.00    +0.295 HD
ENDBRANCH  25  27
ENDBRANCH   3  25
TORSDOF 10
