REMARK  Name = 
REMARK  9 active torsions:
REMARK  status: ('A' for Active; 'I' for Inactive)
REMARK    1  A    between atoms: C_1  and  C_2
REMARK    2  A    between atoms: C_2  and  C_3
REMARK    3  A    between atoms: C_4  and  C_5
REMARK    4  A    between atoms: C_9  and  C_10
REMARK    5  A    between atoms: C_10  and  O_12
REMARK    6  A    between atoms: O_12  and  C_13
REMARK    7  A    between atoms: C_13  and  C_14
REMARK    8  A    between atoms: C_16  and  O_17
REMARK    9  A    between atoms: O_17  and  C_18
REMARK                            x       y       z     vdW  Elec       q    Type
REMARK                         _______ _______ _______ _____ _____    ______ ____
ROOT
ATOM      1  C   UNL     1      -0.925  -2.147  -0.963  0.00  0.00    +0.267 C 
ENDROOT
BRANCH   1   2
ATOM      2  C   UNL     1       0.550  -1.892  -0.833  0.00  0.00    -0.007 A 
ATOM      3  C   UNL     1       1.211  -2.139   0.382  0.00  0.00    +0.053 A 
ATOM      4  C   UNL     1       2.572  -1.852   0.522  0.00  0.00    +0.129 A 
ATOM      5  C   UNL     1       3.288  -1.342  -0.574  0.00  0.00    +0.046 A 
ATOM      6  C   UNL     1       2.641  -1.116  -1.793  0.00  0.00    +0.004 A 
ATOM      7  C   UNL     1       1.278  -1.391  -1.924  0.00  0.00    +0.007 A 
BRANCH   4   8
ATOM      8  O   UNL     1       3.196  -2.124   1.747  0.00  0.00    -0.456 OA
BRANCH   8   9
ATOM      9  C   UNL     1       4.167  -1.310   2.353  0.00  0.00    +0.128 A 
ATOM     10  C   UNL     1       4.215   0.083   2.134  0.00  0.00    +0.046 A 
ATOM     11  C   UNL     1       5.172   0.871   2.791  0.00  0.00    +0.004 A 
ATOM     12  C   UNL     1       6.083   0.276   3.667  0.00  0.00    +0.000 A 
ATOM     13  C   UNL     1       6.033  -1.104   3.896  0.00  0.00    +0.004 A 
ATOM     14  C   UNL     1       5.071  -1.891   3.247  0.00  0.00    +0.046 A 
ENDBRANCH   8   9
ENDBRANCH   4   8
ENDBRANCH   1   2
BRANCH   1  15
ATOM     15  O   UNL     1      -1.603  -0.999  -1.468  0.00  0.00    -0.460 OA
BRANCH  15  16
ATOM     16  C   UNL     1      -1.662   0.224  -0.785  0.00  0.00    +0.312 C 
ATOM     17  O   UNL     1      -1.050   0.381   0.302  0.00  0.00    -0.250 OA
BRANCH  16  22
ATOM     18  C   UNL     1      -3.888   1.376   0.835  0.00  0.00    +0.012 C 
ATOM     19  C   UNL     1      -3.582   1.960  -0.558  0.00  0.00    -0.014 C 
ATOM     20  C   UNL     1      -3.801   3.471  -0.733  0.00  0.00    +0.012 C 
ATOM     21  C   UNL     1      -3.876   1.022  -1.740  0.00  0.00    +0.035 C 
ATOM     22  C   UNL     1      -2.424   1.370  -1.381  0.00  0.00    +0.111 C 
BRANCH  21  23
ATOM     23  C   UNL     1      -4.389   1.660  -3.004  0.00  0.00    +0.010 C 
ATOM     24  C   UNL     1      -5.694   1.889  -3.200  0.00  0.00    +0.103 C 
ATOM     25 CL   UNL     1      -6.239   2.611  -4.704  0.00  0.00    -0.071 Cl
ATOM     26 CL   UNL     1      -6.898   1.467  -1.994  0.00  0.00    -0.071 Cl
ENDBRANCH  21  23
ENDBRANCH  16  22
ENDBRANCH  15  16
ENDBRANCH   1  15
TORSDOF 7
