REMARK  Name = 
REMARK  7 active torsions:
REMARK  status: ('A' for Active; 'I' for Inactive)
REMARK    1  A    between atoms: O_1  and  C_2
REMARK    2  A    between atoms: C_2  and  C_3
REMARK    3  A    between atoms: C_3  and  N_4
REMARK    4  A    between atoms: N_7  and  C_8
REMARK    5  A    between atoms: C_8  and  C_9
REMARK    6  A    between atoms: C_9  and  C_10
REMARK    7  A    between atoms: C_10  and  N_11
REMARK                            x       y       z     vdW  Elec       q    Type
REMARK                         _______ _______ _______ _____ _____    ______ ____
ROOT
ATOM      1  N   UNL     1      -2.697  -0.592   0.864  0.00  0.00    -0.298 N 
ATOM      2  C   UNL     1      -3.206   0.732   0.593  0.00  0.00    +0.048 A 
ATOM      3  C   UNL     1      -3.255   1.711   1.599  0.00  0.00    +0.024 A 
ATOM      4  C   UNL     1      -3.895   2.932   1.362  0.00  0.00    +0.002 A 
ATOM      5  C   UNL     1      -4.503   3.178   0.128  0.00  0.00    +0.001 A 
ATOM      6  C   UNL     1      -4.456   2.213  -0.882  0.00  0.00    +0.017 A 
ATOM      7  C   UNL     1      -3.797   1.000  -0.657  0.00  0.00    +0.034 A 
ATOM      8  S   UNL     1      -3.611  -0.188  -1.990  0.00  0.00    -0.086 S 
ATOM      9  C   UNL     1      -4.025  -1.591  -0.950  0.00  0.00    +0.034 A 
ATOM     10  C   UNL     1      -3.424  -1.712   0.317  0.00  0.00    +0.049 A 
ATOM     11  C   UNL     1      -3.688  -2.850   1.097  0.00  0.00    +0.044 A 
ATOM     12  C   UNL     1      -4.535  -3.855   0.615  0.00  0.00    +0.043 A 
ATOM     13 CL   UNL     1      -4.875  -5.264   1.602  0.00  0.00    -0.083 Cl
ATOM     14  C   UNL     1      -5.141  -3.717  -0.638  0.00  0.00    +0.021 A 
ATOM     15  C   UNL     1      -4.891  -2.585  -1.418  0.00  0.00    +0.018 A 
ENDROOT
BRANCH   1  16
ATOM     16  C   UNL     1      -1.402  -0.784   1.533  0.00  0.00    +0.112 C 
BRANCH  16  17
ATOM     17  C   UNL     1      -0.264  -0.292   0.633  0.00  0.00    +0.035 C 
BRANCH  17  18
ATOM     18  C   UNL     1       1.109  -0.547   1.290  0.00  0.00    +0.086 C 
BRANCH  18  22
ATOM     19  N   UNL     1       4.379   1.017  -0.818  0.00  0.00    -0.298 NA
ATOM     20  C   UNL     1       3.688  -0.123  -1.473  0.00  0.00    +0.100 C 
ATOM     21  C   UNL     1       2.294  -0.414  -0.880  0.00  0.00    +0.100 C 
ATOM     22  N   UNL     1       2.259  -0.004   0.532  0.00  0.00    -0.300 NA
ATOM     23  C   UNL     1       2.426   1.456   0.693  0.00  0.00    +0.100 C 
ATOM     24  C   UNL     1       3.421   2.034  -0.338  0.00  0.00    +0.100 C 
BRANCH  19  25
ATOM     25  C   UNL     1       5.315   0.586   0.246  0.00  0.00    +0.112 C 
BRANCH  25  26
ATOM     26  C   UNL     1       6.677   0.234  -0.350  0.00  0.00    +0.171 C 
BRANCH  26  27
ATOM     27  O   UNL     1       7.206   1.345  -1.019  0.00  0.00    -0.394 OA
ATOM     28  H   UNL     1       8.097   1.066  -1.355  0.00  0.00    +0.209 HD
ENDBRANCH  26  27
ENDBRANCH  25  26
ENDBRANCH  19  25
ENDBRANCH  18  22
ENDBRANCH  17  18
ENDBRANCH  16  17
ENDBRANCH   1  16
TORSDOF 7
