REMARK  Name = 
REMARK  5 active torsions:
REMARK  status: ('A' for Active; 'I' for Inactive)
REMARK    1  A    between atoms: C_1  and  C_2
REMARK    2  A    between atoms: C_2  and  C_3
REMARK    3  A    between atoms: C_3  and  C_4
REMARK    4  A    between atoms: C_3  and  C_10
REMARK    5  A    between atoms: C_11  and  O_12
REMARK                            x       y       z     vdW  Elec       q    Type
REMARK                         _______ _______ _______ _____ _____    ______ ____
ROOT
ATOM      1  C   UNL     1       0.383   0.525  -0.828  0.00  0.00    +0.086 A 
ATOM      2  C   UNL     1       1.134  -0.038   0.231  0.00  0.00    +0.138 A 
ATOM      3  C   UNL     1       2.399  -0.612  -0.043  0.00  0.00    +0.059 A 
ATOM      4  C   UNL     1       2.863  -0.594  -1.379  0.00  0.00    +0.143 A 
ATOM      5  O   UNL     1       2.129  -0.053  -2.341  0.00  0.00    -0.422 OA
ATOM      6  C   UNL     1       0.940   0.493  -2.126  0.00  0.00    +0.345 A 
ATOM      7  O   UNL     1       0.319   0.983  -3.107  0.00  0.00    -0.245 OA
ATOM      8  C   UNL     1       4.106  -1.147  -1.705  0.00  0.00    +0.047 A 
ATOM      9  C   UNL     1       4.900  -1.724  -0.715  0.00  0.00    +0.004 A 
ATOM     10  C   UNL     1       4.457  -1.750   0.608  0.00  0.00    +0.001 A 
ATOM     11  C   UNL     1       3.217  -1.200   0.948  0.00  0.00    +0.015 A 
ENDROOT
BRANCH   2  12
ATOM     12  O   UNL     1       0.597  -0.009   1.522  0.00  0.00    -0.506 OA
ATOM     13  H   UNL     1       1.046  -0.382   2.345  0.00  0.00    +0.292 HD
ENDBRANCH   2  12
BRANCH   1  14
ATOM     14  C   UNL     1      -0.991   1.155  -0.589  0.00  0.00    +0.059 C 
BRANCH  14  15
ATOM     15  C   UNL     1      -1.982   0.111  -0.084  0.00  0.00    -0.040 A 
ATOM     16  C   UNL     1      -2.518  -0.805  -1.010  0.00  0.00    +0.004 A 
ATOM     17  C   UNL     1      -3.407  -1.801  -0.598  0.00  0.00    +0.000 A 
ATOM     18  C   UNL     1      -3.768  -1.904   0.746  0.00  0.00    +0.000 A 
ATOM     19  C   UNL     1      -3.237  -1.013   1.680  0.00  0.00    +0.000 A 
ATOM     20  C   UNL     1      -2.347  -0.014   1.274  0.00  0.00    +0.004 A 
ENDBRANCH  14  15
BRANCH  14  22
ATOM     21  C   UNL     1      -2.176   3.244   0.299  0.00  0.00    +0.005 C 
ATOM     22  C   UNL     1      -0.872   2.445   0.261  0.00  0.00    +0.010 C 
ENDBRANCH  14  22
ENDBRANCH   1  14
TORSDOF 4
