REMARK  Name = 
REMARK  6 active torsions:
REMARK  status: ('A' for Active; 'I' for Inactive)
REMARK    1  A    between atoms: C_1  and  C_2
REMARK    2  A    between atoms: C_2  and  C_3
REMARK    3  A    between atoms: C_3  and  C_4
REMARK    4  A    between atoms: C_4  and  C_5
REMARK    5  A    between atoms: N_8  and  C_18
REMARK    6  A    between atoms: N_9  and  C_12
REMARK                            x       y       z     vdW  Elec       q    Type
REMARK                         _______ _______ _______ _____ _____    ______ ____
ROOT
ATOM      1  C   UNL     1       1.798   0.081  -0.359  0.00  0.00    +0.165 C 
ATOM      2  C   UNL     1       0.715  -0.958  -0.440  0.00  0.00    +0.249 C 
ATOM      3  O   UNL     1       0.899  -2.153  -0.795  0.00  0.00    -0.273 OA
ATOM      4  N   UNL     1      -0.564  -0.432  -0.089  0.00  0.00    -0.180 N 
ATOM      5  N   UNL     1      -0.407   0.924   0.222  0.00  0.00    -0.180 N 
ATOM      6  C   UNL     1       0.966   1.264   0.038  0.00  0.00    +0.249 C 
ATOM      7  O   UNL     1       1.411   2.439   0.138  0.00  0.00    -0.273 OA
ENDROOT
BRANCH   5   8
ATOM      8  C   UNL     1      -1.482   1.872   0.339  0.00  0.00    +0.057 A 
ATOM      9  C   UNL     1      -2.623   1.762  -0.475  0.00  0.00    +0.025 A 
ATOM     10  C   UNL     1      -3.669   2.681  -0.350  0.00  0.00    +0.002 A 
ATOM     11  C   UNL     1      -3.583   3.717   0.583  0.00  0.00    +0.000 A 
ATOM     12  C   UNL     1      -2.450   3.837   1.393  0.00  0.00    +0.002 A 
ATOM     13  C   UNL     1      -1.402   2.919   1.271  0.00  0.00    +0.025 A 
ENDBRANCH   5   8
BRANCH   4  14
ATOM     14  C   UNL     1      -1.712  -1.227   0.254  0.00  0.00    +0.057 A 
ATOM     15  C   UNL     1      -2.403  -0.999   1.456  0.00  0.00    +0.025 A 
ATOM     16  C   UNL     1      -3.525  -1.768   1.782  0.00  0.00    +0.002 A 
ATOM     17  C   UNL     1      -3.963  -2.770   0.912  0.00  0.00    +0.000 A 
ATOM     18  C   UNL     1      -3.279  -3.006  -0.284  0.00  0.00    +0.002 A 
ATOM     19  C   UNL     1      -2.157  -2.238  -0.613  0.00  0.00    +0.025 A 
ENDBRANCH   4  14
BRANCH   1  20
ATOM     20  C   UNL     1       2.849  -0.225   0.728  0.00  0.00    +0.022 C 
BRANCH  20  21
ATOM     21  C   UNL     1       3.734  -1.455   0.439  0.00  0.00    +0.001 C 
BRANCH  21  23
ATOM     22  C   UNL     1       5.457  -0.218  -0.989  0.00  0.00    +0.004 C 
ATOM     23  C   UNL     1       4.502  -1.407  -0.893  0.00  0.00    -0.003 C 
ENDBRANCH  21  23
ENDBRANCH  20  21
ENDBRANCH   1  20
TORSDOF 5
