REMARK  Name = 
REMARK  4 active torsions:
REMARK  status: ('A' for Active; 'I' for Inactive)
REMARK    1  A    between atoms: N_1  and  N_2
REMARK    2  A    between atoms: N_2  and  C_3
REMARK    3  A    between atoms: C_3  and  C_4
REMARK    4  A    between atoms: C_4  and  C_5
REMARK                            x       y       z     vdW  Elec       q    Type
REMARK                         _______ _______ _______ _____ _____    ______ ____
ROOT
ATOM      1  C   UNL     1       0.884  -0.518  -0.485  0.00  0.00    +0.051 C 
ENDROOT
BRANCH   1   2
ATOM      2  C   UNL     1      -0.603  -0.350  -0.325  0.00  0.00    -0.046 A 
ATOM      3  C   UNL     1      -1.359  -1.323   0.351  0.00  0.00    +0.003 A 
ATOM      4  C   UNL     1      -2.735  -1.149   0.526  0.00  0.00    +0.000 A 
ATOM      5  C   UNL     1      -3.364  -0.001   0.037  0.00  0.00    +0.000 A 
ATOM      6  C   UNL     1      -2.617   0.978  -0.625  0.00  0.00    +0.000 A 
ATOM      7  C   UNL     1      -1.240   0.808  -0.802  0.00  0.00    +0.003 A 
ENDBRANCH   1   2
BRANCH   1   8
ATOM      8  C   UNL     1       1.627   0.100   0.711  0.00  0.00    +0.103 C 
BRANCH   8   9
ATOM      9  N   UNL     1       3.089  -0.063   0.609  0.00  0.00    -0.259 NA
ATOM     10  H   UNL     1       3.327  -0.973   0.149  0.00  0.00    +0.140 HD
BRANCH   9  11
ATOM     11  N   UNL     1       3.667   0.976  -0.152  0.00  0.00    -0.270 NA
ATOM     12  H   UNL     1       3.543   1.876   0.366  0.00  0.00    +0.137 HD
ATOM     13  H   UNL     1       3.190   1.050  -1.080  0.00  0.00    +0.137 HD
ENDBRANCH   9  11
ENDBRANCH   8   9
ENDBRANCH   1   8
TORSDOF 4
