REMARK  Name = 
REMARK  6 active torsions:
REMARK  status: ('A' for Active; 'I' for Inactive)
REMARK    1  A    between atoms: C_1  and  N_2
REMARK    2  A    between atoms: N_2  and  C_3
REMARK    3  A    between atoms: C_3  and  C_4
REMARK    4  A    between atoms: C_4  and  O_5
REMARK    5  A    between atoms: C_4  and  C_6
REMARK    6  A    between atoms: C_8  and  O_9
REMARK                            x       y       z     vdW  Elec       q    Type
REMARK                         _______ _______ _______ _____ _____    ______ ____
ROOT
ATOM      1  C   UNL     1       0.759   0.212   0.637  0.00  0.00    -0.014 A 
ATOM      2  C   UNL     1       1.426   0.436  -0.584  0.00  0.00    +0.051 A 
ATOM      3  C   UNL     1       2.490  -0.390  -0.974  0.00  0.00    +0.117 A 
ATOM      4  C   UNL     1       2.888  -1.448  -0.152  0.00  0.00    +0.045 A 
ATOM      5  C   UNL     1       2.223  -1.688   1.052  0.00  0.00    +0.004 A 
ATOM      6  C   UNL     1       1.162  -0.868   1.443  0.00  0.00    +0.006 A 
ENDROOT
BRANCH   3   7
ATOM      7  O   UNL     1       3.156  -0.169  -2.178  0.00  0.00    -0.507 OA
ATOM      8  H   UNL     1       2.892   0.588  -2.798  0.00  0.00    +0.292 HD
ENDBRANCH   3   7
BRANCH   1   9
ATOM      9  C   UNL     1      -0.421   1.063   1.068  0.00  0.00    +0.158 C 
BRANCH   9  10
ATOM     10  O   UNL     1      -0.275   2.404   0.660  0.00  0.00    -0.386 OA
ATOM     11  H   UNL     1      -0.558   2.480  -0.287  0.00  0.00    +0.210 HD
ENDBRANCH   9  10
BRANCH   9  12
ATOM     12  C   UNL     1      -1.772   0.461   0.622  0.00  0.00    +0.116 C 
BRANCH  12  14
ATOM     13  C   UNL     1      -3.224   0.010  -1.244  0.00  0.00    +0.101 C 
ATOM     14  N   UNL     1      -1.858   0.350  -0.841  0.00  0.00    -0.316 NA
ATOM     15  H   UNL     1      -1.245  -0.442  -1.146  0.00  0.00    +0.122 HD
ENDBRANCH  12  14
ENDBRANCH   9  12
ENDBRANCH   1   9
TORSDOF 5
