REMARK  Name = 
REMARK  3 active torsions:
REMARK  status: ('A' for Active; 'I' for Inactive)
REMARK    1  A    between atoms: C_4  and  N_5
REMARK    2  A    between atoms: C_6  and  N_9
REMARK    3  A    between atoms: N_10  and  C_11
REMARK                            x       y       z     vdW  Elec       q    Type
REMARK                         _______ _______ _______ _____ _____    ______ ____
ROOT
ATOM      1  N   UNL     1      -5.551  -0.227  -0.319  0.00  0.00    -0.343 N 
ATOM      2  C   UNL     1      -4.131  -0.116  -0.233  0.00  0.00    +0.118 A 
ATOM      3  N   UNL     1      -3.567   1.064   0.140  0.00  0.00    -0.216 NA
ATOM      4  C   UNL     1      -2.219   1.227   0.238  0.00  0.00    +0.146 A 
ATOM      5  C   UNL     1      -1.362   0.148  -0.051  0.00  0.00    +0.126 A 
ATOM      6  C   UNL     1      -1.929  -1.078  -0.438  0.00  0.00    +0.036 A 
ATOM      7  C   UNL     1      -3.314  -1.212  -0.529  0.00  0.00    +0.045 A 
ATOM      8  H   UNL     1      -6.157   0.595  -0.097  0.00  0.00    +0.144 HD
ATOM      9  H   UNL     1      -6.004  -1.124  -0.604  0.00  0.00    +0.144 HD
ENDROOT
BRANCH   4  10
ATOM     10  N   UNL     1      -1.698   2.498   0.637  0.00  0.00    -0.341 N 
ATOM     11  H   UNL     1      -0.672   2.669   0.726  0.00  0.00    +0.144 HD
ATOM     12  H   UNL     1      -2.350   3.286   0.847  0.00  0.00    +0.144 HD
ENDBRANCH   4  10
BRANCH   5  13
ATOM     13  N   UNL     1       0.059   0.314   0.051  0.00  0.00    -0.146 NA
ATOM     14  N   UNL     1       0.873  -0.631  -0.200  0.00  0.00    -0.149 NA
BRANCH  14  15
ATOM     15  C   UNL     1       2.292  -0.461  -0.097  0.00  0.00    +0.086 A 
ATOM     16  C   UNL     1       3.128  -1.546  -0.389  0.00  0.00    +0.029 A 
ATOM     17  C   UNL     1       4.518  -1.412  -0.297  0.00  0.00    +0.002 A 
ATOM     18  C   UNL     1       5.079  -0.191   0.087  0.00  0.00    +0.000 A 
ATOM     19  C   UNL     1       4.252   0.897   0.381  0.00  0.00    +0.002 A 
ATOM     20  C   UNL     1       2.863   0.766   0.290  0.00  0.00    +0.029 A 
ENDBRANCH  14  15
ENDBRANCH   5  13
TORSDOF 3
