REMARK  Name = 
REMARK  9 active torsions:
REMARK  status: ('A' for Active; 'I' for Inactive)
REMARK    1  A    between atoms: C_1  and  C_2
REMARK    2  A    between atoms: C_2  and  C_3
REMARK    3  A    between atoms: C_2  and  N_11
REMARK    4  A    between atoms: C_3  and  O_4
REMARK    5  A    between atoms: O_4  and  C_5
REMARK    6  A    between atoms: N_11  and  C_12
REMARK    7  A    between atoms: N_11  and  C_15
REMARK    8  A    between atoms: C_12  and  C_13
REMARK    9  A    between atoms: C_15  and  C_16
REMARK                            x       y       z     vdW  Elec       q    Type
REMARK                         _______ _______ _______ _____ _____    ______ ____
ROOT
ATOM      1  N   UNL     1      -1.205  -0.354  -0.686  0.00  0.00    -0.291 NA
ENDROOT
BRANCH   1   3
ATOM      2  C   UNL     1       0.510   0.070  -2.507  0.00  0.00    +0.027 C 
ATOM      3  C   UNL     1       0.178  -0.623  -1.168  0.00  0.00    +0.091 C 
BRANCH   3   4
ATOM      4  C   UNL     1       1.196  -0.256  -0.078  0.00  0.00    +0.247 C 
BRANCH   4   5
ATOM      5  O   UNL     1       2.485  -0.756  -0.429  0.00  0.00    -0.490 OA
BRANCH   5   6
ATOM      6  C   UNL     1       3.635  -0.603   0.358  0.00  0.00    +0.121 A 
ATOM      7  C   UNL     1       4.840  -1.140  -0.114  0.00  0.00    +0.045 A 
ATOM      8  C   UNL     1       6.014  -1.013   0.634  0.00  0.00    +0.004 A 
ATOM      9  C   UNL     1       5.993  -0.347   1.862  0.00  0.00    +0.000 A 
ATOM     10  C   UNL     1       4.797   0.192   2.343  0.00  0.00    +0.004 A 
ATOM     11  C   UNL     1       3.620   0.067   1.597  0.00  0.00    +0.045 A 
ENDBRANCH   5   6
ENDBRANCH   4   5
ENDBRANCH   3   4
ENDBRANCH   1   3
BRANCH   1  12
ATOM     12  C   UNL     1      -2.208  -1.251  -1.309  0.00  0.00    +0.101 C 
BRANCH  12  13
ATOM     13  C   UNL     1      -2.363  -2.530  -0.486  0.00  0.00    +0.124 C 
ATOM     14 CL   UNL     1      -2.999  -2.167   1.139  0.00  0.00    -0.124 Cl
ENDBRANCH  12  13
ENDBRANCH   1  12
BRANCH   1  15
ATOM     15  C   UNL     1      -1.610   1.069  -0.749  0.00  0.00    +0.120 C 
BRANCH  15  16
ATOM     16  C   UNL     1      -2.625   1.363   0.323  0.00  0.00    -0.033 A 
ATOM     17  C   UNL     1      -2.241   1.334   1.674  0.00  0.00    +0.005 A 
ATOM     18  C   UNL     1      -3.182   1.581   2.679  0.00  0.00    +0.000 A 
ATOM     19  C   UNL     1      -4.510   1.857   2.342  0.00  0.00    +0.000 A 
ATOM     20  C   UNL     1      -4.899   1.887   1.000  0.00  0.00    +0.000 A 
ATOM     21  C   UNL     1      -3.962   1.641  -0.008  0.00  0.00    +0.005 A 
ENDBRANCH  15  16
ENDBRANCH   1  15
TORSDOF 8
