REMARK  Name = 
REMARK  7 active torsions:
REMARK  status: ('A' for Active; 'I' for Inactive)
REMARK    1  A    between atoms: C_1  and  N_2
REMARK    2  A    between atoms: N_2  and  C_3
REMARK    3  A    between atoms: N_2  and  C_4
REMARK    4  A    between atoms: C_4  and  C_5
REMARK    5  A    between atoms: C_5  and  C_6
REMARK    6  A    between atoms: C_6  and  C_7
REMARK    7  A    between atoms: C_6  and  C_13
REMARK                            x       y       z     vdW  Elec       q    Type
REMARK                         _______ _______ _______ _____ _____    ______ ____
ROOT
ATOM      1  C   UNL     1      -0.101  -0.605  -0.447  0.00  0.00    +0.069 C 
ENDROOT
BRANCH   1   2
ATOM      2  C   UNL     1      -0.443  -1.953   0.167  0.00  0.00    -0.038 A 
ATOM      3  C   UNL     1      -0.517  -2.143   1.563  0.00  0.00    +0.004 A 
ATOM      4  C   UNL     1      -0.875  -3.387   2.091  0.00  0.00    +0.000 A 
ATOM      5  C   UNL     1      -1.174  -4.452   1.238  0.00  0.00    +0.000 A 
ATOM      6  C   UNL     1      -1.122  -4.273  -0.145  0.00  0.00    +0.000 A 
ATOM      7  C   UNL     1      -0.766  -3.031  -0.679  0.00  0.00    +0.004 A 
ENDBRANCH   1   2
BRANCH   1   8
ATOM      8  C   UNL     1      -1.351   0.232  -0.607  0.00  0.00    +0.049 A 
ATOM      9  C   UNL     1      -2.075   0.702   0.503  0.00  0.00    +0.024 A 
ATOM     10  C   UNL     1      -3.224   1.469   0.299  0.00  0.00    +0.003 A 
ATOM     11  C   UNL     1      -3.645   1.759  -0.999  0.00  0.00    +0.020 A 
ATOM     12  C   UNL     1      -2.906   1.275  -2.080  0.00  0.00    +0.111 A 
ATOM     13  N   UNL     1      -1.790   0.530  -1.863  0.00  0.00    -0.259 NA
ENDBRANCH   1   8
BRANCH   1  14
ATOM     14  C   UNL     1       1.018   0.145   0.317  0.00  0.00    +0.029 C 
BRANCH  14  15
ATOM     15  C   UNL     1       1.576   1.330  -0.491  0.00  0.00    +0.085 C 
BRANCH  15  17
ATOM     16  C   UNL     1       3.912   1.453   0.186  0.00  0.00    +0.104 C 
ATOM     17  N   UNL     1       2.580   2.073   0.302  0.00  0.00    -0.308 NA
ATOM     18  C   UNL     1       2.654   3.472  -0.148  0.00  0.00    +0.104 C 
ENDBRANCH  15  17
ENDBRANCH  14  15
ENDBRANCH   1  14
TORSDOF 5
