REMARK  Name = 
REMARK  2 active torsions:
REMARK  status: ('A' for Active; 'I' for Inactive)
REMARK    1  A    between atoms: C_1  and  N_2
REMARK    2  A    between atoms: C_8  and  C_15
REMARK                            x       y       z     vdW  Elec       q    Type
REMARK                         _______ _______ _______ _____ _____    ______ ____
ROOT
ATOM      1  C   UNL     1       3.728  -1.926  -1.004  0.00  0.00    +0.105 C 
ATOM      2  N   UNL     1       2.690  -0.888  -0.926  0.00  0.00    -0.301 NA
ATOM      3  C   UNL     1       3.313   0.442  -0.743  0.00  0.00    +0.089 C 
ATOM      4  C   UNL     1       2.247   1.547  -0.834  0.00  0.00    +0.051 C 
ATOM      5  C   UNL     1       1.039   1.174  -0.027  0.00  0.00    -0.037 C 
ATOM      6  C   UNL     1       0.773  -0.069   0.365  0.00  0.00    -0.040 C 
ATOM      7  C   UNL     1       1.758  -1.189   0.185  0.00  0.00    +0.116 C 
ATOM      8  C   UNL     1      -0.526  -0.152   1.131  0.00  0.00    +0.077 C 
ATOM      9  C   UNL     1      -0.982   1.274   1.048  0.00  0.00    -0.028 A 
ATOM     10  C   UNL     1      -2.146   1.848   1.564  0.00  0.00    +0.005 A 
ATOM     11  C   UNL     1      -2.362   3.221   1.359  0.00  0.00    +0.000 A 
ATOM     12  C   UNL     1      -1.419   3.993   0.653  0.00  0.00    +0.001 A 
ATOM     13  C   UNL     1      -0.250   3.399   0.148  0.00  0.00    +0.008 A 
ATOM     14  C   UNL     1      -0.060   2.034   0.365  0.00  0.00    -0.018 A 
ENDROOT
BRANCH   8  15
ATOM     15  C   UNL     1      -1.506  -1.100   0.476  0.00  0.00    -0.036 A 
ATOM     16  C   UNL     1      -1.886  -0.938  -0.870  0.00  0.00    +0.004 A 
ATOM     17  C   UNL     1      -2.792  -1.824  -1.460  0.00  0.00    +0.000 A 
ATOM     18  C   UNL     1      -3.327  -2.878  -0.715  0.00  0.00    +0.000 A 
ATOM     19  C   UNL     1      -2.957  -3.047   0.622  0.00  0.00    +0.000 A 
ATOM     20  C   UNL     1      -2.051  -2.163   1.216  0.00  0.00    +0.004 A 
ENDBRANCH   8  15
TORSDOF 1
