REMARK  Name = 
REMARK  2 active torsions:
REMARK  status: ('A' for Active; 'I' for Inactive)
REMARK    1  A    between atoms: C_6  and  C_8
REMARK    2  A    between atoms: C_6  and  C_14
REMARK                            x       y       z     vdW  Elec       q    Type
REMARK                         _______ _______ _______ _____ _____    ______ ____
ROOT
ATOM      1  O   UNL     1      -0.769   3.628   2.142  0.00  0.00    -0.252 OA
ATOM      2  C   UNL     1      -0.574   2.801   1.213  0.00  0.00    +0.307 C 
ATOM      3  N   UNL     1      -0.574   3.152  -0.154  0.00  0.00    -0.238 N 
ATOM      4  C   UNL     1      -0.315   1.927  -0.822  0.00  0.00    +0.253 C 
ATOM      5  O   UNL     1      -0.213   1.843  -2.076  0.00  0.00    -0.272 OA
ATOM      6  C   UNL     1      -0.156   0.763   0.135  0.00  0.00    +0.163 C 
ATOM      7  N   UNL     1      -0.329   1.420   1.435  0.00  0.00    -0.278 N 
ATOM      8  H   UNL     1      -0.716   4.097  -0.576  0.00  0.00    +0.159 HD
ATOM      9  H   UNL     1      -0.303   0.952   2.369  0.00  0.00    +0.152 HD
ENDROOT
BRANCH   6  10
ATOM     10  C   UNL     1       1.251   0.186  -0.028  0.00  0.00    -0.011 A 
ATOM     11  C   UNL     1       1.535  -0.667  -1.115  0.00  0.00    +0.006 A 
ATOM     12  C   UNL     1       2.821  -1.181  -1.302  0.00  0.00    +0.000 A 
ATOM     13  C   UNL     1       3.846  -0.839  -0.420  0.00  0.00    +0.000 A 
ATOM     14  C   UNL     1       3.591   0.024   0.647  0.00  0.00    +0.000 A 
ATOM     15  C   UNL     1       2.306   0.542   0.840  0.00  0.00    +0.006 A 
ENDBRANCH   6  10
BRANCH   6  16
ATOM     16  C   UNL     1      -1.238  -0.311  -0.005  0.00  0.00    -0.011 A 
ATOM     17  C   UNL     1      -1.112  -1.512   0.724  0.00  0.00    +0.006 A 
ATOM     18  C   UNL     1      -2.096  -2.501   0.650  0.00  0.00    +0.000 A 
ATOM     19  C   UNL     1      -3.232  -2.300  -0.135  0.00  0.00    +0.000 A 
ATOM     20  C   UNL     1      -3.391  -1.106  -0.839  0.00  0.00    +0.000 A 
ATOM     21  C   UNL     1      -2.410  -0.113  -0.770  0.00  0.00    +0.006 A 
ENDBRANCH   6  16
TORSDOF 2
