REMARK  Name = 
REMARK  5 active torsions:
REMARK  status: ('A' for Active; 'I' for Inactive)
REMARK    1  A    between atoms: C_1  and  C_2
REMARK    2  A    between atoms: C_2  and  N_3
REMARK    3  A    between atoms: C_2  and  C_4
REMARK    4  A    between atoms: C_4  and  O_5
REMARK    5  A    between atoms: C_4  and  C_6
REMARK                            x       y       z     vdW  Elec       q    Type
REMARK                         _______ _______ _______ _____ _____    ______ ____
ROOT
ATOM      1  C   UNL     1      -0.715   0.796  -0.396  0.00  0.00    +0.161 C 
ENDROOT
BRANCH   1   2
ATOM      2  C   UNL     1       0.741   0.383  -0.273  0.00  0.00    -0.018 A 
ATOM      3  C   UNL     1       1.490   0.086  -1.427  0.00  0.00    +0.006 A 
ATOM      4  C   UNL     1       2.829  -0.303  -1.321  0.00  0.00    +0.000 A 
ATOM      5  C   UNL     1       3.433  -0.401  -0.066  0.00  0.00    +0.000 A 
ATOM      6  C   UNL     1       2.700  -0.112   1.087  0.00  0.00    +0.000 A 
ATOM      7  C   UNL     1       1.360   0.277   0.987  0.00  0.00    +0.006 A 
ENDBRANCH   1   2
BRANCH   1   9
ATOM      8  C   UNL     1      -3.139   0.176   0.089  0.00  0.00    +0.026 C 
ATOM      9  C   UNL     1      -1.668  -0.238   0.258  0.00  0.00    +0.081 C 
BRANCH   9  10
ATOM     10  N   UNL     1      -1.441  -1.567  -0.320  0.00  0.00    -0.325 NA
ATOM     11  H   UNL     1      -2.030  -2.263   0.193  0.00  0.00    +0.119 HD
ATOM     12  H   UNL     1      -1.751  -1.568  -1.319  0.00  0.00    +0.119 HD
ENDBRANCH   9  10
ENDBRANCH   1   9
BRANCH   1  13
ATOM     13  O   UNL     1      -0.900   2.085   0.138  0.00  0.00    -0.386 OA
ATOM     14  H   UNL     1      -0.825   2.024   1.125  0.00  0.00    +0.210 HD
ENDBRANCH   1  13
TORSDOF 4
