REMARK  Name = 
REMARK  5 active torsions:
REMARK  status: ('A' for Active; 'I' for Inactive)
REMARK    1  A    between atoms: C_1  and  C_2
REMARK    2  A    between atoms: C_2  and  C_3
REMARK    3  A    between atoms: C_2  and  N_4
REMARK    4  A    between atoms: C_2  and  C_5
REMARK    5  A    between atoms: C_5  and  C_6
REMARK                            x       y       z     vdW  Elec       q    Type
REMARK                         _______ _______ _______ _____ _____    ______ ____
ROOT
ATOM      1  C   UNL     1      -0.253  -0.661   0.955  0.00  0.00    +0.056 C 
ENDROOT
BRANCH   1   2
ATOM      2  C   UNL     1       1.019  -0.119   0.344  0.00  0.00    -0.046 A 
ATOM      3  C   UNL     1       1.497   1.152   0.707  0.00  0.00    +0.004 A 
ATOM      4  C   UNL     1       2.667   1.657   0.131  0.00  0.00    +0.000 A 
ATOM      5  C   UNL     1       3.367   0.899  -0.811  0.00  0.00    +0.000 A 
ATOM      6  C   UNL     1       2.900  -0.365  -1.178  0.00  0.00    +0.000 A 
ATOM      7  C   UNL     1       1.732  -0.875  -0.604  0.00  0.00    +0.004 A 
ENDBRANCH   1   2
BRANCH   1   9
ATOM      8  C   UNL     1      -1.547  -0.709  -1.236  0.00  0.00    +0.027 C 
ATOM      9  C   UNL     1      -1.540  -0.196   0.218  0.00  0.00    +0.015 C 
ATOM     10  C   UNL     1      -2.770  -0.769   0.955  0.00  0.00    +0.027 C 
BRANCH   9  11
ATOM     11  N   UNL     1      -1.607   1.272   0.210  0.00  0.00    -0.325 NA
ATOM     12  H   UNL     1      -1.652   1.623   1.195  0.00  0.00    +0.119 HD
ATOM     13  H   UNL     1      -2.489   1.579  -0.261  0.00  0.00    +0.119 HD
ENDBRANCH   9  11
ENDBRANCH   1   9
TORSDOF 3
