REMARK  Name = 
REMARK  3 active torsions:
REMARK  status: ('A' for Active; 'I' for Inactive)
REMARK    1  A    between atoms: N_7  and  C_8
REMARK    2  A    between atoms: C_8  and  C_9
REMARK    3  A    between atoms: C_9  and  C_10
REMARK                            x       y       z     vdW  Elec       q    Type
REMARK                         _______ _______ _______ _____ _____    ______ ____
ROOT
ATOM      1  N   UNL     1      -5.834   0.208  -0.767  0.00  0.00    -0.370 N 
ATOM      2  C   UNL     1      -4.609  -0.135  -0.115  0.00  0.00    +0.194 C 
ATOM      3  N   UNL     1      -4.626  -0.568   1.107  0.00  0.00    -0.268 NA
ATOM      4  N   UNL     1      -3.374  -0.058  -0.844  0.00  0.00    -0.298 N 
ATOM      5  C   UNL     1      -2.069  -0.155  -0.248  0.00  0.00    +0.197 C 
ATOM      6  N   UNL     1      -1.830   0.360   0.919  0.00  0.00    -0.268 NA
ATOM      7  N   UNL     1      -1.007  -0.771  -0.992  0.00  0.00    -0.356 N 
ATOM      8  H   UNL     1      -5.829   0.542  -1.756  0.00  0.00    +0.159 HD
ATOM      9  H   UNL     1      -6.748   0.137  -0.267  0.00  0.00    +0.159 HD
ATOM     10  H   UNL     1      -5.516  -0.654   1.647  0.00  0.00    +0.190 HD
ATOM     11  H   UNL     1      -3.427  -0.020  -1.887  0.00  0.00    +0.172 HD
ATOM     12  H   UNL     1      -2.555   0.864   1.475  0.00  0.00    +0.190 HD
ATOM     13  H   UNL     1      -1.237  -1.228  -1.903  0.00  0.00    +0.162 HD
ENDROOT
BRANCH   7  14
ATOM     14  C   UNL     1       0.366  -0.862  -0.499  0.00  0.00    +0.120 C 
BRANCH  14  15
ATOM     15  C   UNL     1       1.077   0.486  -0.641  0.00  0.00    +0.056 C 
BRANCH  15  16
ATOM     16  C   UNL     1       2.497   0.391  -0.149  0.00  0.00    -0.046 A 
ATOM     17  C   UNL     1       3.529   0.024  -1.029  0.00  0.00    +0.004 A 
ATOM     18  C   UNL     1       4.842  -0.096  -0.562  0.00  0.00    +0.000 A 
ATOM     19  C   UNL     1       5.131   0.140   0.785  0.00  0.00    +0.000 A 
ATOM     20  C   UNL     1       4.107   0.492   1.669  0.00  0.00    +0.000 A 
ATOM     21  C   UNL     1       2.793   0.613   1.206  0.00  0.00    +0.004 A 
ENDBRANCH  15  16
ENDBRANCH  14  15
ENDBRANCH   7  14
TORSDOF 3
