REMARK  Name = 
REMARK  3 active torsions:
REMARK  status: ('A' for Active; 'I' for Inactive)
REMARK    1  A    between atoms: C_1  and  C_2
REMARK    2  A    between atoms: C_2  and  C_3
REMARK    3  A    between atoms: C_3  and  C_12
REMARK                            x       y       z     vdW  Elec       q    Type
REMARK                         _______ _______ _______ _____ _____    ______ ____
ROOT
ATOM      1  C   UNL     1      -0.914   0.040  -0.254  0.00  0.00    +0.148 C 
ATOM      2  C   UNL     1      -1.144   1.129  -1.305  0.00  0.00    +0.240 C 
ATOM      3  O   UNL     1      -1.282   0.833  -2.524  0.00  0.00    -0.274 OA
ATOM      4  N   UNL     1      -1.113   2.511  -0.934  0.00  0.00    -0.239 N 
ATOM      5  C   UNL     1      -1.281   2.889   0.430  0.00  0.00    +0.312 C 
ATOM      6  O   UNL     1      -1.206   4.100   0.767  0.00  0.00    -0.252 OA
ATOM      7  N   UNL     1      -1.581   1.891   1.403  0.00  0.00    -0.239 N 
ATOM      8  C   UNL     1      -1.613   0.509   1.028  0.00  0.00    +0.240 C 
ATOM      9  O   UNL     1      -2.164  -0.314   1.807  0.00  0.00    -0.274 OA
ATOM     10  H   UNL     1      -1.042   3.248  -1.671  0.00  0.00    +0.159 HD
ATOM     11  H   UNL     1      -1.852   2.175   2.371  0.00  0.00    +0.159 HD
ENDROOT
BRANCH   1  12
ATOM     12  C   UNL     1       0.605  -0.109  -0.052  0.00  0.00    -0.024 A 
ATOM     13  C   UNL     1       1.202  -0.117   1.232  0.00  0.00    +0.005 A 
ATOM     14  C   UNL     1       2.581  -0.291   1.378  0.00  0.00    +0.000 A 
ATOM     15  C   UNL     1       3.389  -0.476   0.257  0.00  0.00    +0.000 A 
ATOM     16  C   UNL     1       2.820  -0.497  -1.015  0.00  0.00    +0.000 A 
ATOM     17  C   UNL     1       1.442  -0.323  -1.171  0.00  0.00    +0.005 A 
ENDBRANCH   1  12
BRANCH   1  19
ATOM     18  C   UNL     1      -1.085  -2.557   0.040  0.00  0.00    +0.006 C 
ATOM     19  C   UNL     1      -1.526  -1.315  -0.749  0.00  0.00    +0.027 C 
ENDBRANCH   1  19
TORSDOF 2
