REMARK  Name = 
REMARK  1 active torsions:
REMARK  status: ('A' for Active; 'I' for Inactive)
REMARK    1  A    between atoms: C_3  and  C_12
REMARK                            x       y       z     vdW  Elec       q    Type
REMARK                         _______ _______ _______ _____ _____    ______ ____
ROOT
ATOM      1  O   UNL     1      -0.147   2.247   1.248  0.00  0.00    -0.291 OA
ATOM      2  C   UNL     1      -0.496   1.404   0.380  0.00  0.00    +0.179 C 
ATOM      3  C   UNL     1       0.340   0.991  -0.802  0.00  0.00    +0.161 C 
ATOM      4  C   UNL     1      -0.582   0.013  -1.480  0.00  0.00    +0.179 C 
ATOM      5  O   UNL     1      -0.322  -0.595  -2.551  0.00  0.00    -0.291 OA
ATOM      6  C   UNL     1      -1.825  -0.118  -0.731  0.00  0.00    +0.029 A 
ATOM      7  C   UNL     1      -2.940  -0.914  -0.994  0.00  0.00    +0.012 A 
ATOM      8  C   UNL     1      -4.023  -0.856  -0.100  0.00  0.00    +0.001 A 
ATOM      9  C   UNL     1      -3.971  -0.012   1.028  0.00  0.00    +0.001 A 
ATOM     10  C   UNL     1      -2.836   0.780   1.271  0.00  0.00    +0.012 A 
ATOM     11  C   UNL     1      -1.774   0.704   0.368  0.00  0.00    +0.029 A 
ENDROOT
BRANCH   3  12
ATOM     12  C   UNL     1       1.636   0.338  -0.373  0.00  0.00    -0.029 A 
ATOM     13  C   UNL     1       2.863   0.859  -0.819  0.00  0.00    +0.005 A 
ATOM     14  C   UNL     1       4.067   0.264  -0.430  0.00  0.00    +0.000 A 
ATOM     15  C   UNL     1       4.058  -0.855   0.407  0.00  0.00    +0.000 A 
ATOM     16  C   UNL     1       2.845  -1.381   0.857  0.00  0.00    +0.000 A 
ATOM     17  C   UNL     1       1.638  -0.790   0.471  0.00  0.00    +0.005 A 
ENDBRANCH   3  12
TORSDOF 1
