REMARK  Name = 
REMARK  6 active torsions:
REMARK  status: ('A' for Active; 'I' for Inactive)
REMARK    1  A    between atoms: C_1  and  C_2
REMARK    2  A    between atoms: C_5  and  N_8
REMARK    3  A    between atoms: N_8  and  C_9
REMARK    4  A    between atoms: N_8  and  C_15
REMARK    5  A    between atoms: C_9  and  C_10
REMARK    6  A    between atoms: C_17  and  O_18
REMARK                            x       y       z     vdW  Elec       q    Type
REMARK                         _______ _______ _______ _____ _____    ______ ____
ROOT
ATOM      1  N   UNL     1       0.140   0.028  -1.027  0.00  0.00    -0.293 N 
ENDROOT
BRANCH   1   6
ATOM      2  C   UNL     1      -3.862  -2.331   2.374  0.00  0.00    +0.044 C 
ATOM      3  C   UNL     1      -2.800  -1.732   1.501  0.00  0.00    -0.050 A 
ATOM      4  C   UNL     1      -2.422  -2.370   0.310  0.00  0.00    +0.005 A 
ATOM      5  C   UNL     1      -1.458  -1.795  -0.523  0.00  0.00    +0.024 A 
ATOM      6  C   UNL     1      -0.866  -0.567  -0.181  0.00  0.00    +0.034 A 
ATOM      7  C   UNL     1      -1.264   0.080   1.000  0.00  0.00    +0.024 A 
ATOM      8  C   UNL     1      -2.228  -0.496   1.832  0.00  0.00    +0.005 A 
ENDBRANCH   1   6
BRANCH   1   9
ATOM      9  C   UNL     1       0.017   1.415  -1.415  0.00  0.00    +0.038 A 
ATOM     10  C   UNL     1       1.135   2.270  -1.418  0.00  0.00    +0.068 A 
ATOM     11  C   UNL     1       1.002   3.614  -1.787  0.00  0.00    +0.119 A 
ATOM     12  C   UNL     1      -0.253   4.115  -2.156  0.00  0.00    +0.045 A 
ATOM     13  C   UNL     1      -1.369   3.276  -2.154  0.00  0.00    +0.005 A 
ATOM     14  C   UNL     1      -1.238   1.935  -1.785  0.00  0.00    +0.024 A 
BRANCH  11  15
ATOM     15  O   UNL     1       2.122   4.442  -1.780  0.00  0.00    -0.507 OA
ATOM     16  H   UNL     1       2.060   5.419  -2.041  0.00  0.00    +0.292 HD
ENDBRANCH  11  15
ENDBRANCH   1   9
BRANCH   1  17
ATOM     17  C   UNL     1       1.319  -0.762  -1.417  0.00  0.00    +0.181 C 
BRANCH  17  18
ATOM     18  C   UNL     1       2.183  -1.028  -0.223  0.00  0.00    +0.108 C 
ATOM     19  N   UNL     1       3.152  -0.255   0.123  0.00  0.00    -0.270 NA
ATOM     20  C   UNL     1       3.749  -0.743   1.361  0.00  0.00    +0.162 C 
ATOM     21  C   UNL     1       2.916  -1.974   1.750  0.00  0.00    +0.126 C 
ATOM     22  N   UNL     1       1.947  -2.089   0.680  0.00  0.00    -0.330 N 
ATOM     23  H   UNL     1       1.194  -2.809   0.605  0.00  0.00    +0.147 HD
ENDBRANCH  17  18
ENDBRANCH   1  17
TORSDOF 5
