REMARK  Name = 
REMARK  2 active torsions:
REMARK  status: ('A' for Active; 'I' for Inactive)
REMARK    1  A    between atoms: C_5  and  C_7
REMARK    2  A    between atoms: C_7  and  C_8
REMARK                            x       y       z     vdW  Elec       q    Type
REMARK                         _______ _______ _______ _____ _____    ______ ____
ROOT
ATOM      1  N   UNL     1       3.643  -2.106  -0.594  0.00  0.00    -0.313 N 
ATOM      2  C   UNL     1       3.007  -0.897  -1.006  0.00  0.00    +0.303 C 
ATOM      3  O   UNL     1       3.272  -0.415  -2.140  0.00  0.00    -0.253 OA
ATOM      4  N   UNL     1       2.076  -0.245  -0.128  0.00  0.00    -0.240 N 
ATOM      5  C   UNL     1       1.377   0.967  -0.455  0.00  0.00    +0.225 C 
ATOM      6  O   UNL     1       1.540   1.526  -1.573  0.00  0.00    -0.275 OA
ATOM      7  H   UNL     1       4.322  -2.587  -1.225  0.00  0.00    +0.146 HD
ATOM      8  H   UNL     1       3.438  -2.523   0.341  0.00  0.00    +0.146 HD
ATOM      9  H   UNL     1       1.895  -0.682   0.803  0.00  0.00    +0.159 HD
ENDROOT
BRANCH   5  10
ATOM     10  C   UNL     1       0.404   1.556   0.521  0.00  0.00    +0.131 C 
BRANCH  10  11
ATOM     11  C   UNL     1      -0.934   0.882   0.387  0.00  0.00    -0.039 A 
ATOM     12  C   UNL     1      -1.862   1.335  -0.566  0.00  0.00    +0.004 A 
ATOM     13  C   UNL     1      -3.093   0.689  -0.714  0.00  0.00    +0.000 A 
ATOM     14  C   UNL     1      -3.403  -0.418   0.081  0.00  0.00    +0.000 A 
ATOM     15  C   UNL     1      -2.480  -0.883   1.023  0.00  0.00    +0.000 A 
ATOM     16  C   UNL     1      -1.248  -0.239   1.173  0.00  0.00    +0.004 A 
ENDBRANCH  10  11
ENDBRANCH   5  10
TORSDOF 2
