REMARK  Name = 
REMARK  2 active torsions:
REMARK  status: ('A' for Active; 'I' for Inactive)
REMARK    1  A    between atoms: C_1  and  N_2
REMARK    2  A    between atoms: C_6  and  C_9
REMARK                            x       y       z     vdW  Elec       q    Type
REMARK                         _______ _______ _______ _____ _____    ______ ____
ROOT
ATOM      1  C   UNL     1       3.389  -0.898  -0.921  0.00  0.00    +0.141 C 
ATOM      2  N   UNL     1       2.437   0.070  -0.391  0.00  0.00    -0.245 N 
ATOM      3  C   UNL     1       2.287   0.411   0.976  0.00  0.00    +0.223 C 
ATOM      4  O   UNL     1       3.149   0.130   1.851  0.00  0.00    -0.275 OA
ATOM      5  C   UNL     1       1.007   1.120   1.274  0.00  0.00    +0.113 C 
ATOM      6  C   UNL     1       0.268   1.134  -0.089  0.00  0.00    +0.114 C 
ATOM      7  C   UNL     1       1.230   0.462  -1.021  0.00  0.00    +0.229 C 
ATOM      8  O   UNL     1       0.999   0.262  -2.244  0.00  0.00    -0.275 OA
ENDROOT
BRANCH   6   9
ATOM      9  C   UNL     1      -1.056   0.400  -0.032  0.00  0.00    -0.035 A 
ATOM     10  C   UNL     1      -2.257   1.101  -0.244  0.00  0.00    +0.004 A 
ATOM     11  C   UNL     1      -3.485   0.434  -0.183  0.00  0.00    +0.000 A 
ATOM     12  C   UNL     1      -3.526  -0.935   0.093  0.00  0.00    +0.000 A 
ATOM     13  C   UNL     1      -2.341  -1.640   0.311  0.00  0.00    +0.000 A 
ATOM     14  C   UNL     1      -1.110  -0.979   0.251  0.00  0.00    +0.004 A 
ENDBRANCH   6   9
TORSDOF 1
