REMARK  Name = 
REMARK  1 active torsions:
REMARK  status: ('A' for Active; 'I' for Inactive)
REMARK    1  A    between atoms: O_1  and  C_2
REMARK                            x       y       z     vdW  Elec       q    Type
REMARK                         _______ _______ _______ _____ _____    ______ ____
ROOT
ATOM      1  C   UNL     1       1.123   0.012  -0.056  0.00  0.00    +0.117 A 
ATOM      2  C   UNL     1       0.344  -1.101  -0.406  0.00  0.00    +0.045 A 
ATOM      3  C   UNL     1      -1.050  -1.038  -0.309  0.00  0.00    +0.004 A 
ATOM      4  C   UNL     1      -1.669   0.135   0.137  0.00  0.00    +0.000 A 
ATOM      5  C   UNL     1      -0.894   1.245   0.486  0.00  0.00    +0.004 A 
ATOM      6  C   UNL     1       0.500   1.184   0.390  0.00  0.00    +0.045 A 
ENDROOT
BRANCH   1   7
ATOM      7  O   UNL     1       2.512  -0.037  -0.148  0.00  0.00    -0.507 OA
ATOM      8  H   UNL     1       2.993  -0.871  -0.467  0.00  0.00    +0.292 HD
ENDBRANCH   1   7
TORSDOF 1
