REMARK  Name = 
REMARK  3 active torsions:
REMARK  status: ('A' for Active; 'I' for Inactive)
REMARK    1  A    between atoms: C_1  and  C_2
REMARK    2  A    between atoms: C_3  and  C_9
REMARK    3  A    between atoms: N_7  and  C_8
REMARK                            x       y       z     vdW  Elec       q    Type
REMARK                         _______ _______ _______ _____ _____    ______ ____
ROOT
ATOM      1  C   UNL     1      -0.819   2.041  -0.743  0.00  0.00    +0.027 C 
ATOM      2  C   UNL     1      -0.994   0.524  -0.556  0.00  0.00    +0.087 C 
ATOM      3  C   UNL     1      -0.105  -0.039   0.595  0.00  0.00    +0.165 C 
ATOM      4  O   UNL     1      -0.519  -1.312   1.084  0.00  0.00    -0.369 OA
ATOM      5  C   UNL     1      -1.246  -2.060   0.128  0.00  0.00    +0.176 C 
ATOM      6  C   UNL     1      -2.542  -1.344  -0.311  0.00  0.00    +0.112 C 
ATOM      7  N   UNL     1      -2.410   0.133  -0.357  0.00  0.00    -0.298 NA
ATOM      8  C   UNL     1      -3.045   0.755   0.823  0.00  0.00    +0.105 C 
ENDROOT
BRANCH   3   9
ATOM      9  C   UNL     1       1.378  -0.052   0.260  0.00  0.00    -0.017 A 
ATOM     10  C   UNL     1       2.289   0.612   1.105  0.00  0.00    +0.006 A 
ATOM     11  C   UNL     1       3.658   0.600   0.824  0.00  0.00    +0.000 A 
ATOM     12  C   UNL     1       4.137  -0.079  -0.297  0.00  0.00    +0.000 A 
ATOM     13  C   UNL     1       3.248  -0.748  -1.140  0.00  0.00    +0.000 A 
ATOM     14  C   UNL     1       1.877  -0.739  -0.865  0.00  0.00    +0.006 A 
ENDBRANCH   3   9
TORSDOF 1
