REMARK  Name = 
REMARK  2 active torsions:
REMARK  status: ('A' for Active; 'I' for Inactive)
REMARK    1  A    between atoms: C_1  and  C_2
REMARK    2  A    between atoms: C_7  and  C_8
REMARK                            x       y       z     vdW  Elec       q    Type
REMARK                         _______ _______ _______ _____ _____    ______ ____
ROOT
ATOM      1  C   UNL     1      -1.418  -1.590   1.197  0.00  0.00    +0.027 C 
ATOM      2  C   UNL     1      -1.054  -0.103   1.043  0.00  0.00    +0.084 C 
ATOM      3  N   UNL     1      -2.239   0.767   1.197  0.00  0.00    -0.309 NA
ATOM      4  C   UNL     1      -2.928   0.986  -0.078  0.00  0.00    +0.109 C 
ATOM      5  C   UNL     1      -1.965   1.622  -1.103  0.00  0.00    +0.176 C 
ATOM      6  O   UNL     1      -0.600   1.486  -0.740  0.00  0.00    -0.369 OA
ATOM      7  C   UNL     1      -0.335   0.163  -0.312  0.00  0.00    +0.165 C 
ATOM      8  H   UNL     1      -2.915   0.354   1.882  0.00  0.00    +0.122 HD
ENDROOT
BRANCH   7   9
ATOM      9  C   UNL     1       1.159  -0.033  -0.179  0.00  0.00    -0.017 A 
ATOM     10  C   UNL     1       1.763  -1.219  -0.634  0.00  0.00    +0.006 A 
ATOM     11  C   UNL     1       3.139  -1.414  -0.485  0.00  0.00    +0.000 A 
ATOM     12  C   UNL     1       3.924  -0.433   0.126  0.00  0.00    +0.000 A 
ATOM     13  C   UNL     1       3.333   0.744   0.593  0.00  0.00    +0.000 A 
ATOM     14  C   UNL     1       1.957   0.943   0.446  0.00  0.00    +0.006 A 
ENDBRANCH   7   9
TORSDOF 1
