REMARK  Name = 
REMARK  20 active torsions:
REMARK  status: ('A' for Active; 'I' for Inactive)
REMARK    1  A    between atoms: C_1  and  C_2
REMARK    2  A    between atoms: C_2  and  C_3
REMARK    3  A    between atoms: C_3  and  C_4
REMARK    4  A    between atoms: C_4  and  O_6
REMARK    5  A    between atoms: O_6  and  C_7
REMARK    6  A    between atoms: C_7  and  C_8
REMARK    7  A    between atoms: C_7  and  C_14
REMARK    8  A    between atoms: C_8  and  O_9
REMARK    9  A    between atoms: O_9  and  C_10
REMARK   10  A    between atoms: C_10  and  C_12
REMARK   11  A    between atoms: C_12  and  C_13
REMARK   12  A    between atoms: C_14  and  O_15
REMARK   13  A    between atoms: O_15  and  P_16
REMARK   14  A    between atoms: P_16  and  O_17
REMARK   15  A    between atoms: P_16  and  O_19
REMARK   16  A    between atoms: O_19  and  C_20
REMARK   17  A    between atoms: C_20  and  C_21
REMARK   18  A    between atoms: C_21  and  N_22
REMARK   19  A    between atoms: C_21  and  C_23
REMARK   20  A    between atoms: C_23  and  O_24
REMARK                            x       y       z     vdW  Elec       q    Type
REMARK                         _______ _______ _______ _____ _____    ______ ____
ROOT
ATOM      1  O   UNK     1       1.262  -0.471   0.584  0.00  0.00    -0.283 OA
ENDROOT
BRANCH   1   2
ATOM      2  P   UNK     1       2.512  -1.526   0.097  0.00  0.00    +0.475 P 
ATOM      3  O   UNK     1       2.480  -2.781   0.940  0.00  0.00    -0.227 OA
BRANCH   2   4
ATOM      4  O   UNK     1       2.322  -1.944  -1.535  0.00  0.00    -0.302 OA
ATOM      5  H   UNK     1       3.124  -2.483  -1.752  0.00  0.00    +0.222 HD
ENDBRANCH   2   4
BRANCH   2   6
ATOM      6  O   UNK     1       4.019  -0.758   0.315  0.00  0.00    -0.285 OA
BRANCH   6   7
ATOM      7  C   UNK     1       4.014   0.439  -0.428  0.00  0.00    +0.202 C 
BRANCH   7   8
ATOM      8  C   UNK     1       5.382   1.129  -0.295  0.00  0.00    +0.187 C 
BRANCH   8   9
ATOM      9  N   UNK     1       5.387   2.426  -0.976  0.00  0.00    -0.317 NA
ATOM     10  H   UNK     1       5.069   2.303  -1.965  0.00  0.00    +0.119 HD
ATOM     11  H   UNK     1       4.694   3.053  -0.505  0.00  0.00    +0.119 HD
ENDBRANCH   8   9
BRANCH   8  12
ATOM     12  C   UNK     1       6.475   0.264  -0.856  0.00  0.00    +0.324 C 
ATOM     13  O   UNK     1       7.394  -0.158  -0.104  0.00  0.00    -0.249 OA
BRANCH  12  14
ATOM     14  O   UNK     1       6.471  -0.078  -2.205  0.00  0.00    -0.479 OA
ATOM     15  H   UNK     1       7.200  -0.665  -2.594  0.00  0.00    +0.295 HD
ENDBRANCH  12  14
ENDBRANCH   8  12
ENDBRANCH   7   8
ENDBRANCH   6   7
ENDBRANCH   2   6
ENDBRANCH   1   2
BRANCH   1  16
ATOM     16  C   UNK     1       0.026  -1.108   0.359  0.00  0.00    +0.220 C 
BRANCH  16  17
ATOM     17  C   UNK     1      -1.118  -0.142   0.700  0.00  0.00    +0.240 C 
BRANCH  17  18
ATOM     18  O   UNK     1      -2.373  -0.811   0.568  0.00  0.00    -0.456 OA
BRANCH  18  19
ATOM     19  C   UNK     1      -2.866  -1.723   1.506  0.00  0.00    +0.308 C 
ATOM     20  O   UNK     1      -2.246  -1.942   2.583  0.00  0.00    -0.251 OA
BRANCH  19  21
ATOM     21  C   UNK     1      -4.135  -2.462   1.214  0.00  0.00    +0.120 C 
BRANCH  21  23
ATOM     22  C   UNK     1      -3.007  -4.623   0.485  0.00  0.00    +0.004 C 
ATOM     23  C   UNK     1      -3.944  -3.483   0.086  0.00  0.00    +0.008 C 
ENDBRANCH  21  23
ENDBRANCH  19  21
ENDBRANCH  18  19
ENDBRANCH  17  18
BRANCH  17  24
ATOM     24  C   UNK     1      -1.106   1.071  -0.236  0.00  0.00    +0.279 C 
BRANCH  24  25
ATOM     25  O   UNK     1      -2.192   1.934   0.088  0.00  0.00    -0.461 OA
BRANCH  25  26
ATOM     26  C   UNK     1      -2.458   3.108  -0.622  0.00  0.00    +0.307 C 
ATOM     27  O   UNK     1      -1.709   3.472  -1.570  0.00  0.00    -0.251 OA
BRANCH  26  28
ATOM     28  C   UNK     1      -3.622   3.959  -0.225  0.00  0.00    +0.117 C 
ATOM     29  C   UNK     1      -3.205   4.979   0.827  0.00  0.00    +0.015 C 
ENDBRANCH  26  28
ENDBRANCH  25  26
ENDBRANCH  24  25
ENDBRANCH  17  24
ENDBRANCH  16  17
ENDBRANCH   1  16
TORSDOF 18
