REMARK  Name = 
REMARK  6 active torsions:
REMARK  status: ('A' for Active; 'I' for Inactive)
REMARK    1  A    between atoms: N_2  and  C_3
REMARK    2  A    between atoms: C_6  and  C_7
REMARK    3  A    between atoms: C_12  and  O_13
REMARK    4  A    between atoms: O_13  and  C_14
REMARK    5  A    between atoms: N_16  and  C_17
REMARK    6  A    between atoms: N_19  and  C_20
REMARK                            x       y       z     vdW  Elec       q    Type
REMARK                         _______ _______ _______ _____ _____    ______ ____
ROOT
ATOM      1  C   UNL     1      -2.525   0.461   0.218  0.00  0.00    +0.154 C 
ATOM      2  N   UNL     1      -3.394   0.052  -0.902  0.00  0.00    -0.287 NA
ATOM      3  C   UNL     1      -4.779   0.522  -0.735  0.00  0.00    +0.106 C 
ATOM      4  C   UNL     1      -3.349  -1.415  -0.955  0.00  0.00    +0.087 C 
ATOM      5  C   UNL     1      -1.994  -1.840  -0.429  0.00  0.00    +0.030 C 
ATOM      6  C   UNL     1      -1.623  -0.754   0.581  0.00  0.00    +0.028 C 
ATOM      7  C   UNL     1      -1.831  -1.212   2.035  0.00  0.00    +0.019 C 
ATOM      8  C   UNL     1      -0.231  -0.237   0.361  0.00  0.00    -0.014 A 
ATOM      9  C   UNL     1      -0.271   1.048  -0.100  0.00  0.00    +0.035 A 
ATOM     10  C   UNL     1       0.896   1.747  -0.416  0.00  0.00    +0.027 A 
ATOM     11  C   UNL     1       2.130   1.100  -0.246  0.00  0.00    +0.048 A 
ATOM     12  C   UNL     1       2.182  -0.231   0.241  0.00  0.00    +0.134 A 
ATOM     13  C   UNL     1       0.984  -0.908   0.528  0.00  0.00    +0.052 A 
ATOM     14  N   UNL     1      -1.604   1.517  -0.216  0.00  0.00    -0.316 N 
ATOM     15  C   UNL     1      -1.978   2.895  -0.522  0.00  0.00    +0.131 C 
ENDROOT
BRANCH  12  16
ATOM     16  O   UNL     1       3.393  -0.919   0.409  0.00  0.00    -0.412 OA
BRANCH  16  17
ATOM     17  C   UNL     1       4.626  -0.329   0.713  0.00  0.00    +0.405 C 
ATOM     18  O   UNL     1       4.686   0.848   1.163  0.00  0.00    -0.226 OA
ATOM     19  N   UNL     1       5.822  -1.099   0.561  0.00  0.00    -0.284 N 
ATOM     20  C   UNL     1       7.136  -0.555   0.878  0.00  0.00    +0.131 C 
ATOM     21  H   UNL     1       5.749  -2.080   0.209  0.00  0.00    +0.152 HD
ENDBRANCH  16  17
ENDBRANCH  12  16
TORSDOF 2
