REMARK  Name = 
REMARK  20 active torsions:
REMARK  status: ('A' for Active; 'I' for Inactive)
REMARK    1  A    between atoms: C_1  and  C_2
REMARK    2  A    between atoms: C_2  and  C_3
REMARK    3  A    between atoms: C_2  and  C_4
REMARK    4  A    between atoms: C_4  and  C_5
REMARK    5  A    between atoms: C_5  and  C_6
REMARK    6  A    between atoms: C_6  and  C_7
REMARK    7  A    between atoms: C_7  and  C_8
REMARK    8  A    between atoms: C_7  and  C_9
REMARK    9  A    between atoms: C_9  and  C_10
REMARK   10  A    between atoms: C_10  and  C_11
REMARK   11  A    between atoms: C_11  and  C_12
REMARK   12  A    between atoms: C_12  and  C_13
REMARK   13  A    between atoms: C_12  and  C_14
REMARK   14  A    between atoms: C_14  and  C_15
REMARK   15  A    between atoms: C_15  and  C_16
REMARK   16  A    between atoms: C_16  and  C_17
REMARK   17  A    between atoms: C_17  and  C_18
REMARK   18  A    between atoms: C_19  and  C_20
REMARK   19  A    between atoms: C_20  and  C_21
REMARK   20  A    between atoms: C_22  and  C_23
REMARK                            x       y       z     vdW  Elec       q    Type
REMARK                         _______ _______ _______ _____ _____    ______ ____
ROOT
ATOM      1  C   UNL     1       2.798   1.899   0.278  0.00  0.00    -0.076 C 
ATOM      2  C   UNL     1       2.606   0.783  -0.722  0.00  0.00    +0.039 C 
ATOM      3  C   UNL     1       3.170   1.647   1.554  0.00  0.00    -0.023 C 
ENDROOT
BRANCH   1   4
ATOM      4  C   UNL     1       2.596   3.335  -0.165  0.00  0.00    +0.030 C 
BRANCH   4   5
ATOM      5  C   UNL     1       1.415   4.026   0.539  0.00  0.00    +0.005 C 
BRANCH   5   6
ATOM      6  C   UNL     1       0.061   3.305   0.382  0.00  0.00    +0.003 C 
BRANCH   6   7
ATOM      7  C   UNL     1      -0.443   3.144  -1.077  0.00  0.00    -0.014 C 
ATOM      8  C   UNL     1      -0.677   4.511  -1.740  0.00  0.00    +0.007 C 
BRANCH   7   9
ATOM      9  C   UNL     1      -1.750   2.312  -1.105  0.00  0.00    +0.003 C 
BRANCH   9  10
ATOM     10  C   UNL     1      -1.481   0.793  -1.074  0.00  0.00    +0.001 C 
BRANCH  10  11
ATOM     11  C   UNL     1      -2.739  -0.037  -0.741  0.00  0.00    +0.003 C 
BRANCH  11  12
ATOM     12  C   UNL     1      -3.522  -0.543  -1.980  0.00  0.00    -0.014 C 
ATOM     13  C   UNL     1      -4.231   0.594  -2.735  0.00  0.00    +0.007 C 
BRANCH  12  14
ATOM     14  C   UNL     1      -4.513  -1.674  -1.605  0.00  0.00    +0.003 C 
BRANCH  14  15
ATOM     15  C   UNL     1      -5.595  -1.259  -0.590  0.00  0.00    +0.001 C 
BRANCH  15  16
ATOM     16  C   UNL     1      -6.574  -2.415  -0.331  0.00  0.00    +0.003 C 
BRANCH  16  18
ATOM     17  C   UNL     1      -7.267  -1.720   2.029  0.00  0.00    +0.007 C 
ATOM     18  C   UNL     1      -7.743  -2.017   0.598  0.00  0.00    -0.017 C 
ATOM     19  C   UNL     1      -8.796  -3.132   0.623  0.00  0.00    +0.007 C 
ENDBRANCH  16  18
ENDBRANCH  15  16
ENDBRANCH  14  15
ENDBRANCH  12  14
ENDBRANCH  11  12
ENDBRANCH  10  11
ENDBRANCH   9  10
ENDBRANCH   7   9
ENDBRANCH   6   7
ENDBRANCH   5   6
ENDBRANCH   4   5
ENDBRANCH   1   4
BRANCH   3  20
ATOM     20  C   UNL     1       3.437   0.268   2.115  0.00  0.00    +0.066 C 
BRANCH  20  21
ATOM     21  C   UNL     1       4.782  -0.287   1.665  0.00  0.00    +0.010 C 
ATOM     22  C   UNL     1       5.960   0.310   2.006  0.00  0.00    +0.004 C 
ATOM     23  C   UNL     1       6.007   1.573   2.839  0.00  0.00    +0.048 C 
ATOM     24  C   UNL     1       7.250  -0.237   1.500  0.00  0.00    +0.190 C 
ATOM     25  O   UNL     1       8.322   0.406   1.675  0.00  0.00    -0.287 OA
ATOM     26  C   UNL     1       7.286  -1.524   0.774  0.00  0.00    +0.033 A 
ATOM     27  C   UNL     1       6.079  -2.172   0.464  0.00  0.00    +0.033 A 
ATOM     28  C   UNL     1       6.104  -3.387  -0.246  0.00  0.00    +0.012 A 
ATOM     29  C   UNL     1       7.322  -3.952  -0.631  0.00  0.00    +0.001 A 
ATOM     30  C   UNL     1       8.522  -3.313  -0.313  0.00  0.00    +0.001 A 
ATOM     31  C   UNL     1       8.509  -2.105   0.389  0.00  0.00    +0.012 A 
ATOM     32  C   UNL     1       4.797  -1.553   0.870  0.00  0.00    +0.191 C 
ATOM     33  O   UNL     1       3.711  -2.110   0.543  0.00  0.00    -0.287 OA
ENDBRANCH  20  21
ENDBRANCH   3  20
TORSDOF 14
