REMARK  Name = 
REMARK  10 active torsions:
REMARK  status: ('A' for Active; 'I' for Inactive)
REMARK    1  A    between atoms: C_9  and  O_10
REMARK    2  A    between atoms: C_12  and  C_17
REMARK    3  A    between atoms: C_17  and  C_18
REMARK    4  A    between atoms: C_20  and  C_21
REMARK    5  A    between atoms: C_24  and  O_25
REMARK    6  A    between atoms: C_27  and  C_40
REMARK    7  A    between atoms: C_38  and  C_39
REMARK    8  A    between atoms: C_40  and  C_41
REMARK    9  A    between atoms: C_40  and  C_42
REMARK   10  A    between atoms: C_40  and  O_43
REMARK                            x       y       z     vdW  Elec       q    Type
REMARK                         _______ _______ _______ _____ _____    ______ ____
ROOT
ATOM      1  C   UNL     1      -0.050  -0.712  -1.438  0.00  0.00    +0.230 C 
ATOM      2  O   UNL     1      -0.950  -1.656  -2.043  0.00  0.00    -0.455 OA
ATOM      3  C   UNL     1      -2.219  -1.582  -1.507  0.00  0.00    +0.343 C 
ATOM      4  O   UNL     1      -3.177  -2.329  -1.837  0.00  0.00    -0.247 OA
ATOM      5  C   UNL     1      -2.262  -0.488  -0.548  0.00  0.00    +0.203 C 
ATOM      6  O   UNL     1      -3.465   0.092  -0.114  0.00  0.00    -0.352 OA
ATOM      7  C   UNL     1      -2.768  -0.736   0.804  0.00  0.00    +0.166 C 
ATOM      8  C   UNL     1      -1.897   0.043   1.776  0.00  0.00    +0.071 C 
ATOM      9  C   UNL     1      -0.575   0.368   1.020  0.00  0.00    +0.094 C 
ATOM     10  C   UNL     1       0.568  -0.617   1.449  0.00  0.00    +0.141 C 
ATOM     11  C   UNL     1       1.712  -0.635   0.410  0.00  0.00    +0.075 C 
ATOM     12  C   UNL     1       1.054  -1.497  -0.686  0.00  0.00    +0.225 C 
ATOM     13  O   UNL     1       0.431  -2.530   0.065  0.00  0.00    -0.457 OA
ATOM     14  C   UNL     1       0.129  -2.038   1.314  0.00  0.00    +0.314 C 
ATOM     15  O   UNL     1      -0.419  -2.723   2.217  0.00  0.00    -0.250 OA
ATOM     16  C   UNL     1      -0.942   0.245  -0.520  0.00  0.00    +0.080 C 
ATOM     17  C   UNL     1      -1.128   1.609  -1.224  0.00  0.00    +0.021 C 
ENDROOT
BRANCH  11  18
ATOM     18  C   UNL     1       2.331   0.705   0.005  0.00  0.00    -0.072 C 
ATOM     19  C   UNL     1       2.784   0.985  -1.409  0.00  0.00    +0.039 C 
ATOM     20  C   UNL     1       2.695   1.580   0.957  0.00  0.00    +0.008 C 
ENDBRANCH  11  18
BRANCH   9  21
ATOM     21  O   UNL     1      -0.140   1.669   1.357  0.00  0.00    -0.387 OA
ATOM     22  H   UNL     1      -0.901   2.303   1.309  0.00  0.00    +0.210 HD
ENDBRANCH   9  21
TORSDOF 2
REMARK  Name = 
REMARK  10 active torsions:
REMARK  status: ('A' for Active; 'I' for Inactive)
REMARK    1  A    between atoms: C_9  and  O_10
REMARK    2  A    between atoms: C_12  and  C_17
REMARK    3  A    between atoms: C_17  and  C_18
REMARK    4  A    between atoms: C_20  and  C_21
REMARK    5  A    between atoms: C_24  and  O_25
REMARK    6  A    between atoms: C_27  and  C_40
REMARK    7  A    between atoms: C_38  and  C_39
REMARK    8  A    between atoms: C_40  and  C_41
REMARK    9  A    between atoms: C_40  and  C_42
REMARK   10  A    between atoms: C_40  and  O_43
REMARK                            x       y       z     vdW  Elec       q    Type
REMARK                         _______ _______ _______ _____ _____    ______ ____
ROOT
ATOM      1  C   UNL     1       2.234   1.758   0.055  0.00  0.00    +0.166 C 
ATOM      2  C   UNL     1       1.431   1.587   1.325  0.00  0.00    +0.071 C 
ATOM      3  C   UNL     1       0.973   0.110   1.387  0.00  0.00    +0.094 C 
ATOM      4  C   UNL     1      -0.574  -0.005   1.175  0.00  0.00    +0.139 C 
ATOM      5  C   UNL     1      -0.912   0.186  -0.323  0.00  0.00    +0.081 C 
ATOM      6  C   UNL     1      -0.533  -1.217  -0.851  0.00  0.00    +0.224 C 
ATOM      7  O   UNL     1      -0.951  -2.107   0.173  0.00  0.00    -0.457 OA
ATOM      8  C   UNL     1      -0.965  -1.426   1.367  0.00  0.00    +0.314 C 
ATOM      9  O   UNL     1      -1.254  -1.960   2.470  0.00  0.00    -0.250 OA
ATOM     10  C   UNL     1       1.003  -1.308  -0.960  0.00  0.00    +0.229 C 
ATOM     11  O   UNL     1       1.442  -0.659  -2.163  0.00  0.00    -0.455 OA
ATOM     12  C   UNL     1       2.376   0.322  -1.914  0.00  0.00    +0.343 C 
ATOM     13  O   UNL     1       2.951   0.998  -2.808  0.00  0.00    -0.247 OA
ATOM     14  C   UNL     1       2.586   0.433  -0.476  0.00  0.00    +0.203 C 
ATOM     15  O   UNL     1       3.551   1.251   0.140  0.00  0.00    -0.352 OA
ATOM     16  C   UNL     1       1.807  -0.642   0.258  0.00  0.00    +0.080 C 
ATOM     17  C   UNL     1       2.810  -1.664   0.836  0.00  0.00    +0.021 C 
ENDROOT
BRANCH   5  18
ATOM     18  C   UNL     1      -2.383   0.653  -0.631  0.00  0.00    +0.068 C 
ATOM     19  C   UNL     1      -3.472  -0.334  -0.142  0.00  0.00    +0.041 C 
ATOM     20  C   UNL     1      -2.558   0.843  -2.151  0.00  0.00    +0.041 C 
BRANCH  18  21
ATOM     21  O   UNL     1      -2.589   1.922  -0.051  0.00  0.00    -0.389 OA
ATOM     22  H   UNL     1      -2.795   1.810   0.913  0.00  0.00    +0.210 HD
ENDBRANCH  18  21
ENDBRANCH   5  18
BRANCH   3  23
ATOM     23  O   UNL     1       1.296  -0.403   2.664  0.00  0.00    -0.387 OA
ATOM     24  H   UNL     1       0.789   0.118   3.341  0.00  0.00    +0.210 HD
ENDBRANCH   3  23
TORSDOF 3
