REMARK  Name = 
REMARK  5 active torsions:
REMARK  status: ('A' for Active; 'I' for Inactive)
REMARK    1  A    between atoms: C_1  and  C_2
REMARK    2  A    between atoms: C_2  and  C_3
REMARK    3  A    between atoms: C_4  and  C_5
REMARK    4  A    between atoms: C_5  and  C_6
REMARK    5  A    between atoms: N_10  and  C_11
REMARK                            x       y       z     vdW  Elec       q    Type
REMARK                         _______ _______ _______ _____ _____    ______ ____
ROOT
ATOM      1  C   UNL     1      -1.046  -0.153   1.208  0.00  0.00    +0.104 C 
ATOM      2  C   UNL     1      -0.239   0.868   0.357  0.00  0.00    +0.046 C 
ATOM      3  C   UNL     1      -1.108   2.141   0.321  0.00  0.00    +0.236 C 
ATOM      4  O   UNL     1      -1.939   2.045   1.465  0.00  0.00    -0.464 OA
ATOM      5  C   UNL     1      -1.916   0.767   1.985  0.00  0.00    +0.311 C 
ATOM      6  O   UNL     1      -2.576   0.430   3.003  0.00  0.00    -0.251 OA
ENDROOT
BRANCH   1   8
ATOM      7  C   UNL     1      -3.083  -0.654  -0.346  0.00  0.00    +0.004 C 
ATOM      8  C   UNL     1      -1.893  -1.208   0.449  0.00  0.00    +0.012 C 
ENDBRANCH   1   8
BRANCH   2   9
ATOM      9  C   UNL     1       0.259   0.427  -1.038  0.00  0.00    +0.062 C 
BRANCH   9  10
ATOM     10  C   UNL     1       1.374  -0.583  -0.955  0.00  0.00    +0.038 A 
ATOM     11  C   UNL     1       1.298  -1.908  -1.334  0.00  0.00    +0.133 A 
ATOM     12  N   UNL     1       2.490  -2.503  -1.132  0.00  0.00    -0.244 NA
ATOM     13  C   UNL     1       3.277  -1.522  -0.640  0.00  0.00    +0.199 A 
ATOM     14  N   UNL     1       2.635  -0.342  -0.540  0.00  0.00    -0.337 N 
ATOM     15  C   UNL     1       3.206   0.898  -0.024  0.00  0.00    +0.150 C 
ENDBRANCH   9  10
ENDBRANCH   2   9
TORSDOF 3
