REMARK  Name = 
REMARK  17 active torsions:
REMARK  status: ('A' for Active; 'I' for Inactive)
REMARK    1  A    between atoms: C_3  and  O_4
REMARK    2  A    between atoms: C_5  and  C_6
REMARK    3  A    between atoms: C_8  and  O_9
REMARK    4  A    between atoms: O_9  and  C_10
REMARK    5  A    between atoms: C_24  and  C_45
REMARK    6  A    between atoms: C_25  and  C_26
REMARK    7  A    between atoms: C_27  and  O_28
REMARK    8  A    between atoms: C_32  and  C_33
REMARK    9  A    between atoms: C_33  and  C_34
REMARK   10  A    between atoms: C_36  and  C_37
REMARK   11  A    between atoms: C_39  and  C_40
REMARK   12  A    between atoms: C_42  and  O_43
REMARK   13  A    between atoms: O_43  and  C_44
REMARK   14  A    between atoms: C_45  and  C_46
REMARK   15  A    between atoms: C_47  and  C_48
REMARK   16  A    between atoms: C_53  and  O_55
REMARK   17  A    between atoms: O_55  and  C_56
REMARK                            x       y       z     vdW  Elec       q    Type
REMARK                         _______ _______ _______ _____ _____    ______ ____
ROOT
ATOM      1  C   UNL     1      -5.236  -0.310  -0.768  0.00  0.00    +0.179 C 
ATOM      2  O   UNL     1      -3.872  -0.634  -1.028  0.00  0.00    -0.334 OA
ATOM      3  C   UNL     1      -3.530  -2.014  -1.172  0.00  0.00    +0.240 C 
ATOM      4  C   UNL     1      -4.747  -2.989  -1.355  0.00  0.00    +0.056 C 
ATOM      5  C   UNL     1      -5.317  -2.988  -2.792  0.00  0.00    +0.013 C 
ATOM      6  C   UNL     1      -5.859  -2.749  -0.311  0.00  0.00    +0.043 C 
ATOM      7  C   UNL     1      -5.931  -1.298   0.209  0.00  0.00    +0.150 C 
ATOM      8  C   UNL     1      -2.717  -2.422   0.055  0.00  0.00    +0.276 C 
ATOM      9  O   UNL     1      -3.285  -2.633   1.163  0.00  0.00    -0.281 OA
ATOM     10  C   UNL     1      -1.254  -2.551  -0.001  0.00  0.00    +0.288 C 
ATOM     11  O   UNL     1      -0.561  -1.541   0.305  0.00  0.00    -0.267 OA
ATOM     12  N   UNL     1      -0.621  -3.797  -0.392  0.00  0.00    -0.282 N 
ATOM     13  C   UNL     1      -1.388  -5.049  -0.241  0.00  0.00    +0.109 C 
ATOM     14  C   UNL     1      -0.459  -6.248  -0.021  0.00  0.00    +0.019 C 
ATOM     15  C   UNL     1       0.565  -6.400  -1.157  0.00  0.00    +0.004 C 
ATOM     16  C   UNL     1       1.044  -5.054  -1.731  0.00  0.00    +0.034 C 
ATOM     17  C   UNL     1       0.815  -3.874  -0.769  0.00  0.00    +0.185 C 
ATOM     18  C   UNL     1       1.312  -2.622  -1.439  0.00  0.00    +0.328 C 
ATOM     19  O   UNL     1       0.641  -2.098  -2.369  0.00  0.00    -0.249 OA
ATOM     20  O   UNL     1       2.543  -2.083  -1.058  0.00  0.00    -0.455 OA
ATOM     21  C   UNL     1       2.998  -0.792  -1.466  0.00  0.00    +0.207 C 
ATOM     22  C   UNL     1       2.170   0.337  -0.762  0.00  0.00    +0.060 C 
ATOM     23  C   UNL     1       2.037   0.154   0.765  0.00  0.00    +0.014 C 
ATOM     24  C   UNL     1       2.658   1.763  -1.132  0.00  0.00    +0.128 C 
ATOM     25  C   UNL     1       1.797   2.901  -0.524  0.00  0.00    +0.106 C 
ATOM     26  C   UNL     1       0.322   2.852  -0.879  0.00  0.00    +0.143 C 
ATOM     27  O   UNL     1      -0.025   2.350  -1.934  0.00  0.00    -0.297 OA
ATOM     28  C   UNL     1      -0.731   3.553  -0.024  0.00  0.00    +0.078 C 
ATOM     29  C   UNL     1      -0.850   2.917   1.354  0.00  0.00    -0.017 C 
ATOM     30  C   UNL     1      -1.934   2.998   2.167  0.00  0.00    -0.076 C 
ATOM     31  C   UNL     1      -1.800   2.452   3.563  0.00  0.00    +0.039 C 
ATOM     32  C   UNL     1      -3.223   3.713   1.779  0.00  0.00    +0.033 C 
ATOM     33  C   UNL     1      -4.457   2.793   1.578  0.00  0.00    -0.008 C 
ATOM     34  C   UNL     1      -5.130   2.427   2.916  0.00  0.00    +0.008 C 
ATOM     35  C   UNL     1      -4.163   1.515   0.732  0.00  0.00    +0.038 C 
ATOM     36  C   UNL     1      -5.289   1.177  -0.285  0.00  0.00    +0.149 C 
ENDROOT
BRANCH  21  37
ATOM     37  C   UNL     1       4.518  -0.714  -1.316  0.00  0.00    -0.036 C 
ATOM     38  C   UNL     1       5.359  -0.890  -2.566  0.00  0.00    +0.042 C 
ATOM     39  C   UNL     1       5.097  -0.652  -0.091  0.00  0.00    -0.021 C 
BRANCH  39  40
ATOM     40  C   UNL     1       6.595  -0.521   0.159  0.00  0.00    +0.014 C 
ATOM     41  C   UNL     1       6.924  -0.813   1.637  0.00  0.00    +0.009 C 
ATOM     42  C   UNL     1       8.443  -0.789   1.911  0.00  0.00    +0.022 C 
ATOM     43  C   UNL     1       9.226   0.085   0.913  0.00  0.00    +0.109 C 
ATOM     44 CL   UNL     1      10.783   0.592   1.630  0.00  0.00    -0.119 Cl
ATOM     45  C   UNL     1       8.415   1.313   0.472  0.00  0.00    +0.136 C 
ATOM     46  C   UNL     1       7.100   0.892  -0.228  0.00  0.00    +0.040 C 
BRANCH  45  47
ATOM     47  O   UNL     1       8.113   2.107   1.612  0.00  0.00    -0.378 OA
ATOM     48  C   UNL     1       8.331   3.474   1.338  0.00  0.00    +0.194 C 
ENDBRANCH  45  47
ENDBRANCH  39  40
ENDBRANCH  21  37
BRANCH   3  49
ATOM     49  O   UNL     1      -2.696  -2.102  -2.309  0.00  0.00    -0.358 OA
ATOM     50  H   UNL     1      -2.446  -3.053  -2.445  0.00  0.00    +0.213 HD
ENDBRANCH   3  49
BRANCH   7  51
ATOM     51  O   UNL     1      -7.301  -0.955   0.349  0.00  0.00    -0.377 OA
ATOM     52  C   UNL     1      -7.739  -1.180   1.672  0.00  0.00    +0.194 C 
ENDBRANCH   7  51
BRANCH  24  53
ATOM     53  O   UNL     1       2.696   1.895  -2.528  0.00  0.00    -0.391 OA
ATOM     54  H   UNL     1       3.275   2.677  -2.731  0.00  0.00    +0.210 HD
ENDBRANCH  24  53
BRANCH  28  55
ATOM     55  C   UNL     1      -0.425   5.062   0.109  0.00  0.00    +0.012 C 
ATOM     56  C   UNL     1      -0.607   5.800  -1.215  0.00  0.00    +0.005 C 
ENDBRANCH  28  55
BRANCH  36  57
ATOM     57  O   UNL     1      -6.558   1.486   0.279  0.00  0.00    -0.377 OA
ATOM     58  C   UNL     1      -7.404   2.095  -0.676  0.00  0.00    +0.194 C 
ENDBRANCH  36  57
TORSDOF 8
