REMARK  Name = 
REMARK  7 active torsions:
REMARK  status: ('A' for Active; 'I' for Inactive)
REMARK    1  A    between atoms: C_5  and  C_8
REMARK    2  A    between atoms: C_8  and  C_9
REMARK    3  A    between atoms: C_8  and  C_28
REMARK    4  A    between atoms: C_9  and  C_10
REMARK    5  A    between atoms: C_10  and  C_11
REMARK    6  A    between atoms: C_11  and  N_12
REMARK    7  A    between atoms: C_15  and  N_18
REMARK                            x       y       z     vdW  Elec       q    Type
REMARK                         _______ _______ _______ _____ _____    ______ ____
ROOT
ATOM      1  C   UNL     1      -0.179  -1.074   0.604  0.00  0.00    +0.084 C 
ENDROOT
BRANCH   1   2
ATOM      2  N   UNL     1       0.532  -2.345   0.870  0.00  0.00    -0.302 NA
ATOM      3  C   UNL     1       1.486  -2.262   2.001  0.00  0.00    +0.086 C 
ATOM      4  C   UNL     1       2.771  -1.487   1.655  0.00  0.00    +0.040 C 
ATOM      5  C   UNL     1       3.409  -2.018   0.362  0.00  0.00    +0.095 C 
ATOM      6  C   UNL     1       2.392  -2.114  -0.783  0.00  0.00    +0.040 C 
ATOM      7  C   UNL     1       1.165  -2.920  -0.336  0.00  0.00    +0.086 C 
BRANCH   5   8
ATOM      8  N   UNL     1       4.584  -1.216  -0.025  0.00  0.00    -0.289 N 
ATOM      9  C   UNL     1       5.868  -1.660  -0.098  0.00  0.00    +0.328 A 
ATOM     10  O   UNL     1       6.212  -2.845   0.159  0.00  0.00    -0.247 OA
ATOM     11  N   UNL     1       6.751  -0.707  -0.473  0.00  0.00    -0.306 N 
ATOM     12  C   UNL     1       5.991   0.386  -0.645  0.00  0.00    +0.067 A 
ATOM     13  C   UNL     1       6.405   1.659  -1.031  0.00  0.00    +0.028 A 
ATOM     14  C   UNL     1       5.424   2.659  -1.145  0.00  0.00    +0.002 A 
ATOM     15  C   UNL     1       4.070   2.366  -0.870  0.00  0.00    +0.002 A 
ATOM     16  C   UNL     1       3.682   1.070  -0.480  0.00  0.00    +0.028 A 
ATOM     17  C   UNL     1       4.679   0.090  -0.377  0.00  0.00    +0.070 A 
ATOM     18  H   UNL     1       7.785  -0.800  -0.596  0.00  0.00    +0.170 HD
ENDBRANCH   5   8
ENDBRANCH   1   2
BRANCH   1  19
ATOM     19  C   UNL     1      -1.453  -0.993   1.458  0.00  0.00    +0.016 C 
BRANCH  19  20
ATOM     20  C   UNL     1      -2.127   0.393   1.410  0.00  0.00    +0.014 C 
BRANCH  20  21
ATOM     21  C   UNL     1      -2.676   0.785   0.013  0.00  0.00    +0.049 C 
BRANCH  21  26
ATOM     22  F   UNL     1      -4.994   5.979  -0.180  0.00  0.00    -0.205 F 
ATOM     23  C   UNL     1      -4.442   4.742  -0.124  0.00  0.00    +0.123 A 
ATOM     24  C   UNL     1      -4.818   3.854   0.885  0.00  0.00    +0.038 A 
ATOM     25  C   UNL     1      -4.251   2.577   0.945  0.00  0.00    +0.007 A 
ATOM     26  C   UNL     1      -3.287   2.177  -0.003  0.00  0.00    -0.040 A 
ATOM     27  C   UNL     1      -2.930   3.079  -1.024  0.00  0.00    +0.007 A 
ATOM     28  C   UNL     1      -3.500   4.354  -1.080  0.00  0.00    +0.038 A 
ENDBRANCH  21  26
BRANCH  21  29
ATOM     29  C   UNL     1      -3.655  -0.226  -0.560  0.00  0.00    -0.040 A 
ATOM     30  C   UNL     1      -4.752  -0.699   0.188  0.00  0.00    +0.007 A 
ATOM     31  C   UNL     1      -5.643  -1.622  -0.368  0.00  0.00    +0.038 A 
ATOM     32  C   UNL     1      -5.458  -2.076  -1.676  0.00  0.00    +0.123 A 
ATOM     33  F   UNL     1      -6.326  -2.969  -2.212  0.00  0.00    -0.205 F 
ATOM     34  C   UNL     1      -4.383  -1.604  -2.432  0.00  0.00    +0.038 A 
ATOM     35  C   UNL     1      -3.488  -0.683  -1.881  0.00  0.00    +0.007 A 
ENDBRANCH  21  29
ENDBRANCH  20  21
ENDBRANCH  19  20
ENDBRANCH   1  19
TORSDOF 7
