REMARK  Name = 
REMARK  9 active torsions:
REMARK  status: ('A' for Active; 'I' for Inactive)
REMARK    1  A    between atoms: C_1  and  C_2
REMARK    2  A    between atoms: C_2  and  C_3
REMARK    3  A    between atoms: C_2  and  N_4
REMARK    4  A    between atoms: N_4  and  C_5
REMARK    5  A    between atoms: C_5  and  C_6
REMARK    6  A    between atoms: C_6  and  O_7
REMARK    7  A    between atoms: C_6  and  C_8
REMARK    8  A    between atoms: C_8  and  O_9
REMARK    9  A    between atoms: O_9  and  C_10
REMARK                            x       y       z     vdW  Elec       q    Type
REMARK                         _______ _______ _______ _____ _____    ______ ____
ROOT
ATOM      1  O   UNL     1      -1.292  -0.968   0.123  0.00  0.00    -0.489 OA
ENDROOT
BRANCH   1   2
ATOM      2  C   UNL     1      -2.478  -0.279   0.426  0.00  0.00    +0.130 A 
ATOM      3  C   UNL     1      -2.595   0.665   1.477  0.00  0.00    +0.046 A 
ATOM      4  C   UNL     1      -3.824   1.317   1.723  0.00  0.00    +0.006 A 
ATOM      5  C   UNL     1      -4.953   1.037   0.934  0.00  0.00    +0.026 A 
ATOM      6  C   UNL     1      -4.815   0.101  -0.088  0.00  0.00    +0.050 A 
ATOM      7  C   UNL     1      -3.624  -0.533  -0.330  0.00  0.00    +0.041 A 
ATOM      8  C   UNL     1      -3.825  -1.384  -1.396  0.00  0.00    +0.031 A 
ATOM      9  C   UNL     1      -5.160  -1.217  -1.752  0.00  0.00    +0.084 A 
ATOM     10  N   UNL     1      -5.760  -0.309  -0.950  0.00  0.00    -0.361 N 
ATOM     11  H   UNL     1      -6.754   0.007  -0.995  0.00  0.00    +0.165 HD
ENDBRANCH   1   2
BRANCH   1  12
ATOM     12  C   UNL     1       0.004  -0.683   0.651  0.00  0.00    +0.261 C 
BRANCH  12  13
ATOM     13  C   UNL     1       0.694   0.428  -0.164  0.00  0.00    +0.166 C 
BRANCH  13  14
ATOM     14  O   UNL     1      -0.076   1.604  -0.150  0.00  0.00    -0.387 OA
ATOM     15  H   UNL     1      -0.050   1.968   0.773  0.00  0.00    +0.210 HD
ENDBRANCH  13  14
BRANCH  13  16
ATOM     16  C   UNL     1       2.124   0.723   0.334  0.00  0.00    +0.115 C 
BRANCH  16  17
ATOM     17  N   UNL     1       3.024  -0.404   0.038  0.00  0.00    -0.311 NA
ATOM     18  H   UNL     1       2.847  -1.132   0.769  0.00  0.00    +0.122 HD
BRANCH  17  20
ATOM     19  C   UNL     1       5.330  -1.199   0.469  0.00  0.00    +0.023 C 
ATOM     20  C   UNL     1       4.444   0.000   0.099  0.00  0.00    +0.048 C 
ATOM     21  C   UNL     1       4.886   0.558  -1.261  0.00  0.00    +0.023 C 
ENDBRANCH  17  20
ENDBRANCH  16  17
ENDBRANCH  13  16
ENDBRANCH  12  13
ENDBRANCH   1  12
TORSDOF 7
