REMARK  Name = 
REMARK  8 active torsions:
REMARK  status: ('A' for Active; 'I' for Inactive)
REMARK    1  A    between atoms: C_1  and  C_2
REMARK    2  A    between atoms: C_2  and  C_3
REMARK    3  A    between atoms: C_6  and  C_7
REMARK    4  A    between atoms: C_7  and  C_8
REMARK    5  A    between atoms: C_8  and  O_9
REMARK    6  A    between atoms: O_9  and  C_10
REMARK    7  A    between atoms: C_13  and  C_14
REMARK    8  A    between atoms: C_14  and  C_15
REMARK                            x       y       z     vdW  Elec       q    Type
REMARK                         _______ _______ _______ _____ _____    ______ ____
ROOT
ATOM      1  C   UNL     1       1.302   1.391   0.076  0.00  0.00    +0.121 A 
ATOM      2  C   UNL     1       2.504   2.092  -0.076  0.00  0.00    +0.046 A 
ATOM      3  C   UNL     1       3.662   1.436  -0.503  0.00  0.00    +0.007 A 
ATOM      4  C   UNL     1       3.634   0.062  -0.785  0.00  0.00    -0.046 A 
ATOM      5  C   UNL     1       2.433  -0.646  -0.628  0.00  0.00    +0.007 A 
ATOM      6  C   UNL     1       1.275   0.010  -0.201  0.00  0.00    +0.046 A 
ENDROOT
BRANCH   1   7
ATOM      7  O   UNL     1       0.171   2.103   0.510  0.00  0.00    -0.492 OA
BRANCH   7   8
ATOM      8  C   UNL     1      -1.148   1.571   0.629  0.00  0.00    +0.235 C 
BRANCH   8   9
ATOM      9  C   UNL     1      -1.799   1.429  -0.750  0.00  0.00    +0.096 C 
BRANCH   9  13
ATOM     10  C   UNL     1      -5.745  -0.188  -0.328  0.00  0.00    -0.030 A 
ATOM     11  C   UNL     1      -5.514   1.195  -0.361  0.00  0.00    +0.114 A 
ATOM     12  N   UNL     1      -4.249   1.673  -0.507  0.00  0.00    -0.260 NA
ATOM     13  C   UNL     1      -3.175   0.846  -0.626  0.00  0.00    +0.045 A 
ATOM     14  C   UNL     1      -3.360  -0.542  -0.572  0.00  0.00    +0.024 A 
ATOM     15  C   UNL     1      -4.649  -1.057  -0.421  0.00  0.00    +0.007 A 
BRANCH  10  17
ATOM     16  C   UNL     1      -7.446  -0.891   1.354  0.00  0.00    +0.009 C 
ATOM     17  C   UNL     1      -7.136  -0.728  -0.130  0.00  0.00    +0.033 C 
ENDBRANCH  10  17
ENDBRANCH   9  13
ENDBRANCH   8   9
ENDBRANCH   7   8
ENDBRANCH   1   7
BRANCH   4  18
ATOM     18  C   UNL     1       4.885  -0.655  -1.227  0.00  0.00    +0.059 C 
BRANCH  18  19
ATOM     19  C   UNL     1       5.504  -1.491  -0.095  0.00  0.00    +0.146 C 
ATOM     20  S   UNL     1       6.884  -2.504  -0.775  0.00  0.00    -0.054 S 
ATOM     21  C   UNL     1       8.055  -1.586   0.212  0.00  0.00    +0.279 C 
ATOM     22  O   UNL     1       9.299  -1.740   0.103  0.00  0.00    -0.263 OA
ATOM     23  N   UNL     1       7.493  -0.660   1.117  0.00  0.00    -0.246 N 
ATOM     24  C   UNL     1       6.085  -0.628   0.989  0.00  0.00    +0.234 C 
ATOM     25  O   UNL     1       5.372   0.067   1.760  0.00  0.00    -0.274 OA
ATOM     26  H   UNL     1       8.041  -0.083   1.794  0.00  0.00    +0.158 HD
ENDBRANCH  18  19
ENDBRANCH   4  18
TORSDOF 7
