REMARK  Name = 
REMARK  7 active torsions:
REMARK  status: ('A' for Active; 'I' for Inactive)
REMARK    1  A    between atoms: C_2  and  O_3
REMARK    2  A    between atoms: O_3  and  C_4
REMARK    3  A    between atoms: C_4  and  C_5
REMARK    4  A    between atoms: C_5  and  O_6
REMARK    5  A    between atoms: O_6  and  C_7
REMARK    6  A    between atoms: C_7  and  C_8
REMARK    7  A    between atoms: C_8  and  N_9
REMARK                            x       y       z     vdW  Elec       q    Type
REMARK                         _______ _______ _______ _____ _____    ______ ____
ROOT
ATOM      1  O   UNL     1       2.609  -3.038   0.430  0.00  0.00    -0.225 OA
ATOM      2  C   UNL     1       2.554  -1.808   0.150  0.00  0.00    +0.413 C 
ATOM      3  N   UNL     1       3.763  -1.028   0.069  0.00  0.00    -0.188 N 
ATOM      4  C   UNL     1       5.075  -1.637   0.125  0.00  0.00    +0.060 A 
ATOM      5  C   UNL     1       5.366  -2.804  -0.605  0.00  0.00    +0.025 A 
ATOM      6  C   UNL     1       6.676  -3.286  -0.670  0.00  0.00    +0.002 A 
ATOM      7  C   UNL     1       7.711  -2.595  -0.036  0.00  0.00    +0.001 A 
ATOM      8  C   UNL     1       7.439  -1.424   0.675  0.00  0.00    +0.017 A 
ATOM      9  C   UNL     1       6.125  -0.950   0.766  0.00  0.00    +0.035 A 
ATOM     10  S   UNL     1       5.758   0.503   1.759  0.00  0.00    -0.084 S 
ATOM     11  C   UNL     1       4.668   1.213   0.521  0.00  0.00    +0.053 A 
ATOM     12  C   UNL     1       3.705   0.401  -0.100  0.00  0.00    +0.148 A 
ATOM     13  N   UNL     1       2.814   0.960  -0.969  0.00  0.00    -0.238 NA
ATOM     14  C   UNL     1       2.832   2.288  -1.257  0.00  0.00    +0.113 A 
ATOM     15  C   UNL     1       3.796   3.119  -0.678  0.00  0.00    +0.021 A 
ATOM     16  C   UNL     1       4.717   2.577   0.217  0.00  0.00    +0.020 A 
ENDROOT
BRANCH   2  17
ATOM     17  O   UNL     1       1.311  -1.191  -0.037  0.00  0.00    -0.447 OA
BRANCH  17  18
ATOM     18  C   UNL     1       0.079  -1.902   0.020  0.00  0.00    +0.262 C 
BRANCH  18  19
ATOM     19  C   UNL     1      -1.073  -0.943  -0.263  0.00  0.00    +0.201 C 
BRANCH  19  20
ATOM     20  O   UNL     1      -2.292  -1.664  -0.243  0.00  0.00    -0.375 OA
BRANCH  20  21
ATOM     21  C   UNL     1      -3.378  -0.834   0.128  0.00  0.00    +0.175 C 
BRANCH  21  22
ATOM     22  C   UNL     1      -3.862   0.020  -1.056  0.00  0.00    +0.112 C 
BRANCH  22  23
ATOM     23  N   UNL     1      -4.934   0.975  -0.700  0.00  0.00    -0.300 NA
ATOM     24  C   UNL     1      -4.518   2.239  -0.050  0.00  0.00    +0.084 C 
ATOM     25  C   UNL     1      -4.728   2.242   1.471  0.00  0.00    +0.015 C 
ATOM     26  C   UNL     1      -6.135   1.778   1.835  0.00  0.00    +0.002 C 
ATOM     27  C   UNL     1      -6.394   0.390   1.256  0.00  0.00    +0.015 C 
ATOM     28  C   UNL     1      -6.226   0.400  -0.269  0.00  0.00    +0.084 C 
ENDBRANCH  22  23
ENDBRANCH  21  22
ENDBRANCH  20  21
ENDBRANCH  19  20
ENDBRANCH  18  19
ENDBRANCH  17  18
ENDBRANCH   2  17
TORSDOF 7
