REMARK  Name = 
REMARK  14 active torsions:
REMARK  status: ('A' for Active; 'I' for Inactive)
REMARK    1  A    between atoms: C_3  and  N_36
REMARK    2  A    between atoms: C_4  and  O_5
REMARK    3  A    between atoms: O_5  and  C_6
REMARK    4  A    between atoms: C_6  and  C_7
REMARK    5  A    between atoms: C_9  and  C_10
REMARK    6  A    between atoms: C_19  and  O_20
REMARK    7  A    between atoms: O_20  and  C_21
REMARK    8  A    between atoms: C_21  and  C_22
REMARK    9  A    between atoms: C_24  and  N_28
REMARK   10  A    between atoms: C_26  and  C_27
REMARK   11  A    between atoms: N_31  and  C_32
REMARK   12  A    between atoms: N_31  and  C_33
REMARK   13  A    between atoms: N_39  and  C_40
REMARK   14  A    between atoms: N_39  and  C_41
REMARK                            x       y       z     vdW  Elec       q    Type
REMARK                         _______ _______ _______ _____ _____    ______ ____
ROOT
ATOM      1  C   UNL     1       2.118   0.432   0.359  0.00  0.00    +0.003 C 
ATOM      2  C   UNL     1       3.358   0.755   1.164  0.00  0.00    +0.027 C 
ATOM      3  C   UNL     1       4.492   0.132   0.313  0.00  0.00    +0.098 C 
ATOM      4  C   UNL     1       3.923   0.063  -1.149  0.00  0.00    +0.200 C 
ATOM      5  C   UNL     1       2.524   0.731  -1.088  0.00  0.00    +0.010 C 
ATOM      6  C   UNL     1       2.662   2.255  -1.400  0.00  0.00    +0.015 C 
ATOM      7  C   UNL     1       1.460   0.097  -2.015  0.00  0.00    +0.011 C 
ATOM      8  C   UNL     1       0.042   0.620  -1.680  0.00  0.00    +0.005 C 
ATOM      9  C   UNL     1      -0.327   0.422  -0.177  0.00  0.00    -0.001 C 
ATOM     10  C   UNL     1       0.760   1.046   0.761  0.00  0.00    -0.004 C 
ATOM     11  C   UNL     1       0.445   0.742   2.236  0.00  0.00    +0.004 C 
ATOM     12  C   UNL     1      -0.955   1.226   2.615  0.00  0.00    +0.004 C 
ATOM     13  C   UNL     1      -2.020   0.575   1.715  0.00  0.00    -0.001 C 
ATOM     14  C   UNL     1      -3.445   0.939   2.198  0.00  0.00    +0.050 C 
ATOM     15  C   UNL     1      -4.560   0.579   1.182  0.00  0.00    +0.194 C 
ATOM     16  C   UNL     1      -4.083  -0.468   0.152  0.00  0.00    +0.098 C 
ATOM     17  C   UNL     1      -2.827   0.008  -0.642  0.00  0.00    +0.029 C 
ATOM     18  C   UNL     1      -1.796   0.861   0.190  0.00  0.00    -0.024 C 
ATOM     19  C   UNL     1      -2.013   2.370  -0.129  0.00  0.00    +0.012 C 
ENDROOT
BRANCH  16  20
ATOM     20  N   UNL     1      -5.199  -0.942  -0.712  0.00  0.00    -0.299 NA
ATOM     21  C   UNL     1      -5.937   0.115  -1.442  0.00  0.00    +0.067 C 
ATOM     22  C   UNL     1      -6.857  -0.472  -2.541  0.00  0.00    -0.060 C 
ATOM     23  N   UNL     1      -7.264  -1.877  -2.262  0.00  0.00    +0.378 N 
ATOM     24  C   UNL     1      -8.102  -2.354  -3.390  0.00  0.00    -0.092 C 
ATOM     25  C   UNL     1      -8.092  -1.949  -1.029  0.00  0.00    -0.092 C 
ATOM     26  C   UNL     1      -6.062  -2.767  -2.142  0.00  0.00    -0.060 C 
ATOM     27  C   UNL     1      -4.808  -2.048  -1.601  0.00  0.00    +0.067 C 
ENDBRANCH  16  20
BRANCH   3  28
ATOM     28  N   UNL     1       5.797   0.853   0.424  0.00  0.00    -0.299 NA
ATOM     29  C   UNL     1       6.886   0.148  -0.316  0.00  0.00    +0.067 C 
ATOM     30  C   UNL     1       8.107  -0.251   0.546  0.00  0.00    -0.060 C 
ATOM     31  N   UNL     1       7.728  -0.898   1.837  0.00  0.00    +0.378 N 
ATOM     32  C   UNL     1       7.278  -2.292   1.581  0.00  0.00    -0.092 C 
ATOM     33  C   UNL     1       8.942  -0.976   2.687  0.00  0.00    -0.092 C 
ATOM     34  C   UNL     1       6.654  -0.133   2.560  0.00  0.00    -0.060 C 
ATOM     35  C   UNL     1       6.200   1.141   1.821  0.00  0.00    +0.067 C 
ENDBRANCH   3  28
BRANCH   4  36
ATOM     36  O   UNL     1       4.784   0.692  -2.102  0.00  0.00    -0.459 OA
BRANCH  36  37
ATOM     37  C   UNL     1       4.798   0.364  -3.462  0.00  0.00    +0.304 C 
ATOM     38  C   UNL     1       5.716   1.088  -4.384  0.00  0.00    +0.136 C 
ATOM     39  O   UNL     1       4.022  -0.512  -3.924  0.00  0.00    -0.251 OA
ENDBRANCH  36  37
ENDBRANCH   4  36
BRANCH  15  40
ATOM     40  O   UNL     1      -5.703   0.063   1.868  0.00  0.00    -0.460 OA
BRANCH  40  41
ATOM     41  C   UNL     1      -6.526   0.841   2.686  0.00  0.00    +0.304 C 
ATOM     42  C   UNL     1      -7.662   0.197   3.403  0.00  0.00    +0.136 C 
ATOM     43  O   UNL     1      -6.357   2.088   2.774  0.00  0.00    -0.251 OA
ENDBRANCH  40  41
ENDBRANCH  15  40
TORSDOF 6
