REMARK  Name = 
REMARK  10 active torsions:
REMARK  status: ('A' for Active; 'I' for Inactive)
REMARK    1  A    between atoms: C_3  and  C_4
REMARK    2  A    between atoms: C_3  and  C_5
REMARK    3  A    between atoms: CA_6  and  C_34
REMARK    4  A    between atoms: CA_10  and  N_11
REMARK    5  A    between atoms: C_12  and  CA_14
REMARK    6  A    between atoms: CA_14  and  N_15
REMARK    7  A    between atoms: CA_14  and  C_28
REMARK    8  A    between atoms: N_21  and  C_22
REMARK    9  A    between atoms: C_22  and  C_23
REMARK   10  A    between atoms: C_34  and  O_35
REMARK                            x       y       z     vdW  Elec       q    Type
REMARK                         _______ _______ _______ _____ _____    ______ ____
ROOT
ATOM      1  CA  UNL     1       0.278  -0.235   0.407  0.00  0.00    +0.191 C 
ENDROOT
BRANCH   1   2
ATOM      2  N   UNL     1       1.455  -0.265  -0.476  0.00  0.00    -0.284 N 
ATOM      3  C   UNL     1       2.547   0.650  -0.294  0.00  0.00    +0.310 C 
ATOM      4  O   UNL     1       2.357   1.727   0.337  0.00  0.00    -0.252 OA
ATOM      5  N   UNL     1       3.860   0.371  -0.835  0.00  0.00    -0.217 N 
ATOM      6  C   UNL     1       4.760   1.500  -1.154  0.00  0.00    +0.137 C 
ATOM      7  C   UNL     1       6.180   1.164  -0.683  0.00  0.00    +0.127 C 
ATOM      8  N   UNL     1       6.650  -0.009  -1.429  0.00  0.00    -0.293 N 
ATOM      9  C   UNL     1       5.768  -1.145  -1.471  0.00  0.00    +0.302 C 
ATOM     10  O   UNL     1       6.162  -2.256  -1.921  0.00  0.00    -0.265 OA
ATOM     11  C   UNL     1       4.367  -0.975  -1.024  0.00  0.00    +0.309 C 
ATOM     12  O   UNL     1       3.675  -1.982  -0.729  0.00  0.00    -0.264 OA
ATOM     13  H   UNL     1       1.526  -1.028  -1.199  0.00  0.00    +0.151 HD
BRANCH   8  14
ATOM     14  C   UNL     1       7.774   0.108  -2.376  0.00  0.00    +0.105 C 
ATOM     15  C   UNL     1       8.999  -0.653  -1.873  0.00  0.00    +0.024 C 
ENDBRANCH   8  14
ENDBRANCH   1   2
BRANCH   1  16
ATOM     16  C   UNL     1       0.375  -1.298   1.480  0.00  0.00    -0.018 A 
ATOM     17  C   UNL     1       0.969  -2.550   1.232  0.00  0.00    +0.006 A 
ATOM     18  C   UNL     1       1.117  -3.475   2.266  0.00  0.00    +0.000 A 
ATOM     19  C   UNL     1       0.641  -3.175   3.548  0.00  0.00    +0.000 A 
ATOM     20  C   UNL     1      -0.028  -1.973   3.787  0.00  0.00    +0.000 A 
ATOM     21  C   UNL     1      -0.167  -1.040   2.755  0.00  0.00    +0.006 A 
ENDBRANCH   1  16
BRANCH   1  23
ATOM     22  N   UNL     1      -1.993   0.639  -0.316  0.00  0.00    -0.300 N 
ATOM     23  C   UNL     1      -0.984  -0.374  -0.397  0.00  0.00    +0.239 C 
ATOM     24  O   UNL     1      -1.142  -1.362  -1.165  0.00  0.00    -0.273 OA
ATOM     25  H   UNL     1      -1.986   1.286   0.509  0.00  0.00    +0.150 HD
BRANCH  22  35
ATOM     26  C   UNL     1      -4.261   0.310  -1.149  0.00  0.00    +0.165 C 
ATOM     27  S   UNL     1      -4.552  -0.707   0.331  0.00  0.00    -0.127 S 
ATOM     28  C   UNL     1      -6.007   0.323   0.823  0.00  0.00    +0.042 C 
ATOM     29  C   UNL     1      -6.134   0.329   2.353  0.00  0.00    +0.025 C 
ATOM     30  C   UNL     1      -7.266  -0.341   0.222  0.00  0.00    +0.025 C 
ATOM     31  CA  UNL     1      -5.740   1.767   0.286  0.00  0.00    +0.201 C 
ATOM     32  N   UNL     1      -4.840   1.577  -0.832  0.00  0.00    -0.271 N 
ATOM     33  C   UNL     1      -3.582   2.217  -1.262  0.00  0.00    +0.240 C 
ATOM     34  O   UNL     1      -3.183   3.409  -1.408  0.00  0.00    -0.273 OA
ATOM     35  CA  UNL     1      -2.954   0.863  -1.397  0.00  0.00    +0.190 C 
BRANCH  31  36
ATOM     36  C   UNL     1      -6.924   2.601  -0.114  0.00  0.00    +0.327 C 
ATOM     37  OXT UNL     1      -7.036   3.758   0.356  0.00  0.00    -0.249 OA
BRANCH  36  38
ATOM     38  O   UNL     1      -7.798   2.186  -1.112  0.00  0.00    -0.479 OA
ATOM     39  H   UNL     1      -7.730   2.574  -2.045  0.00  0.00    +0.295 HD
ENDBRANCH  36  38
ENDBRANCH  31  36
ENDBRANCH  22  35
ENDBRANCH   1  23
TORSDOF 7
