REMARK  Name = 
REMARK  0 active torsions:
REMARK  status: ('A' for Active; 'I' for Inactive)
REMARK                            x       y       z     vdW  Elec       q    Type
REMARK                         _______ _______ _______ _____ _____    ______ ____
ROOT
ATOM      1  C   UNL     1       0.480   1.346  -0.088  0.00  0.00    +0.096 C 
ATOM      2  C   UNL     1       1.420   0.130  -0.129  0.00  0.00    +0.096 C 
ATOM      3  N   UNL     1       0.736  -1.048  -0.678  0.00  0.00    -0.314 NA
ATOM      4  C   UNL     1      -0.480  -1.346   0.088  0.00  0.00    +0.096 C 
ATOM      5  C   UNL     1      -1.420  -0.130   0.129  0.00  0.00    +0.096 C 
ATOM      6  N   UNL     1      -0.736   1.048   0.678  0.00  0.00    -0.314 NA
ATOM      7  H   UNL     1       0.469  -0.849  -1.672  0.00  0.00    +0.122 HD
ATOM      8  H   UNL     1      -0.469   0.849   1.672  0.00  0.00    +0.122 HD
ENDROOT
TORSDOF 0
