REMARK  Name = 
REMARK  4 active torsions:
REMARK  status: ('A' for Active; 'I' for Inactive)
REMARK    1  A    between atoms: C_2  and  C_3
REMARK    2  A    between atoms: C_3  and  C_4
REMARK    3  A    between atoms: C_12  and  C_14
REMARK    4  A    between atoms: C_14  and  C_15
REMARK                            x       y       z     vdW  Elec       q    Type
REMARK                         _______ _______ _______ _____ _____    ______ ____
ROOT
ATOM      1  C   UNL     1       2.780  -1.859   1.822  0.00  0.00    +0.216 C 
ATOM      2  O   UNL     1       3.612  -2.649   2.247  0.00  0.00    -0.276 OA
ATOM      3  N   UNL     1       1.433  -2.134   1.909  0.00  0.00    -0.298 N 
ATOM      4  C   UNL     1       0.814  -2.879   3.020  0.00  0.00    +0.126 C 
ATOM      5  C   UNL     1      -0.369  -2.051   3.606  0.00  0.00    +0.126 C 
ATOM      6  N   UNL     1      -1.276  -1.584   2.530  0.00  0.00    -0.298 N 
ATOM      7  C   UNL     1      -0.589  -0.964   1.407  0.00  0.00    +0.126 C 
ATOM      8  C   UNL     1       0.494  -1.865   0.855  0.00  0.00    +0.126 C 
ATOM      9  C   UNL     1      -2.651  -1.704   2.621  0.00  0.00    +0.216 C 
ATOM     10  O   UNL     1      -3.190  -2.309   3.538  0.00  0.00    -0.276 OA
ENDROOT
BRANCH   1  11
ATOM     11  C   UNL     1       3.217  -0.438   1.388  0.00  0.00    +0.107 C 
BRANCH  11  13
ATOM     12 BR   UNL     1       1.384   1.131  -0.313  0.00  0.00    -0.091 Br
ATOM     13  C   UNL     1       2.998   0.080  -0.020  0.00  0.00    +0.089 C 
ENDBRANCH  11  13
ENDBRANCH   1  11
BRANCH   9  14
ATOM     14  C   UNL     1      -3.503  -1.113   1.492  0.00  0.00    +0.107 C 
BRANCH  14  15
ATOM     15  C   UNL     1      -3.734   0.390   1.485  0.00  0.00    +0.089 C 
ATOM     16 BR   UNL     1      -2.320   1.636   1.045  0.00  0.00    -0.091 Br
ENDBRANCH  14  15
ENDBRANCH   9  14
TORSDOF 4
