REMARK  Name = 
REMARK  11 active torsions:
REMARK  status: ('A' for Active; 'I' for Inactive)
REMARK    1  A    between atoms: C_1  and  N_2
REMARK    2  A    between atoms: N_2  and  C_3
REMARK    3  A    between atoms: N_2  and  S_4
REMARK    4  A    between atoms: S_4  and  C_7
REMARK    5  A    between atoms: N_18  and  C_19
REMARK    6  A    between atoms: C_19  and  C_20
REMARK    7  A    between atoms: C_20  and  C_21
REMARK    8  A    between atoms: C_21  and  N_22
REMARK    9  A    between atoms: C_25  and  C_26
REMARK   10  A    between atoms: C_26  and  C_27
REMARK   11  A    between atoms: C_27  and  O_28
REMARK                            x       y       z     vdW  Elec       q    Type
REMARK                         _______ _______ _______ _____ _____    ______ ____
ROOT
ATOM      1  C   UNL     1      -3.377   1.585  -0.718  0.00  0.00    +0.107 A 
ATOM      2  C   UNL     1      -2.715   0.625   0.059  0.00  0.00    +0.053 A 
ATOM      3  C   UNL     1      -2.809  -0.748  -0.252  0.00  0.00    +0.050 A 
ATOM      4  C   UNL     1      -3.683  -1.138  -1.286  0.00  0.00    +0.034 A 
ATOM      5  S   UNL     1      -4.137  -2.856  -1.461  0.00  0.00    -0.086 S 
ATOM      6  C   UNL     1      -2.452  -3.434  -1.343  0.00  0.00    +0.034 A 
ATOM      7  C   UNL     1      -2.032  -4.476  -2.178  0.00  0.00    +0.017 A 
ATOM      8  C   UNL     1      -0.798  -5.089  -1.966  0.00  0.00    +0.001 A 
ATOM      9  C   UNL     1       0.008  -4.680  -0.904  0.00  0.00    +0.002 A 
ATOM     10  C   UNL     1      -0.397  -3.628  -0.078  0.00  0.00    +0.024 A 
ATOM     11  C   UNL     1      -1.616  -2.956  -0.314  0.00  0.00    +0.048 A 
ATOM     12  N   UNL     1      -1.969  -1.740   0.404  0.00  0.00    -0.298 N 
ATOM     13  C   UNL     1      -4.333  -0.181  -2.070  0.00  0.00    +0.019 A 
ATOM     14  C   UNL     1      -4.170   1.177  -1.796  0.00  0.00    +0.030 A 
ENDROOT
BRANCH   1  15
ATOM     15  S   UNL     1      -3.196   3.301  -0.348  0.00  0.00    +0.060 S 
ATOM     16  O   UNL     1      -1.810   3.549   0.180  0.00  0.00    -0.153 OA
ATOM     17  O   UNL     1      -3.360   4.099  -1.612  0.00  0.00    -0.153 OA
BRANCH  15  19
ATOM     18  C   UNL     1      -4.157   3.141   2.101  0.00  0.00    +0.131 C 
ATOM     19  N   UNL     1      -4.373   3.834   0.826  0.00  0.00    -0.183 NA
ATOM     20  C   UNL     1      -5.728   3.570   0.328  0.00  0.00    +0.131 C 
ENDBRANCH  15  19
ENDBRANCH   1  15
BRANCH  12  21
ATOM     21  C   UNL     1      -1.483  -1.511   1.779  0.00  0.00    +0.112 C 
BRANCH  21  22
ATOM     22  C   UNL     1      -0.053  -0.909   1.879  0.00  0.00    +0.035 C 
BRANCH  22  23
ATOM     23  C   UNL     1       0.562  -0.345   0.580  0.00  0.00    +0.086 C 
BRANCH  23  24
ATOM     24  N   UNL     1       1.944   0.116   0.836  0.00  0.00    -0.302 NA
ATOM     25  C   UNL     1       2.287   1.269  -0.029  0.00  0.00    +0.084 C 
ATOM     26  C   UNL     1       3.792   1.546  -0.011  0.00  0.00    +0.019 C 
ATOM     27  C   UNL     1       4.590   0.357  -0.605  0.00  0.00    -0.006 C 
ATOM     28  C   UNL     1       3.808  -0.975  -0.473  0.00  0.00    +0.019 C 
ATOM     29  C   UNL     1       2.934  -0.997   0.790  0.00  0.00    +0.084 C 
BRANCH  27  30
ATOM     30  C   UNL     1       5.994   0.241   0.033  0.00  0.00    +0.031 C 
BRANCH  30  31
ATOM     31  C   UNL     1       6.874   1.462  -0.254  0.00  0.00    +0.156 C 
BRANCH  31  32
ATOM     32  O   UNL     1       8.146   1.258   0.295  0.00  0.00    -0.395 OA
ATOM     33  H   UNL     1       8.673   2.071   0.079  0.00  0.00    +0.209 HD
ENDBRANCH  31  32
ENDBRANCH  30  31
ENDBRANCH  27  30
ENDBRANCH  23  24
ENDBRANCH  22  23
ENDBRANCH  21  22
ENDBRANCH  12  21
TORSDOF 9
