REMARK  Name = 
REMARK  11 active torsions:
REMARK  status: ('A' for Active; 'I' for Inactive)
REMARK    1  A    between atoms: C_1  and  C_2
REMARK    2  A    between atoms: C_2  and  C_3
REMARK    3  A    between atoms: C_2  and  C_4
REMARK    4  A    between atoms: C_2  and  N_5
REMARK    5  A    between atoms: N_5  and  C_6
REMARK    6  A    between atoms: C_6  and  C_7
REMARK    7  A    between atoms: C_7  and  O_8
REMARK    8  A    between atoms: C_7  and  C_9
REMARK    9  A    between atoms: CA_11  and  C_12
REMARK   10  A    between atoms: C_12  and  O_13
REMARK   11  A    between atoms: C_14  and  O_15
REMARK                            x       y       z     vdW  Elec       q    Type
REMARK                         _______ _______ _______ _____ _____    ______ ____
ROOT
ATOM      1  C   UNL     1       1.615   0.602  -0.312  0.00  0.00    +0.072 A 
ATOM      2  N   UNL     1       2.553   0.577   0.675  0.00  0.00    -0.248 NA
ATOM      3  CA  UNL     1       3.779   0.011   0.503  0.00  0.00    +0.108 A 
ATOM      4  C   UNL     1       4.099  -0.594  -0.724  0.00  0.00    +0.140 A 
ATOM      5  C   UNL     1       3.152  -0.584  -1.753  0.00  0.00    +0.049 A 
ATOM      6  C   UNL     1       1.907   0.013  -1.553  0.00  0.00    +0.029 A 
ENDROOT
BRANCH   4   7
ATOM      7  O   UNL     1       5.342  -1.197  -0.913  0.00  0.00    -0.505 OA
ATOM      8  H   UNL     1       5.589  -1.638  -1.791  0.00  0.00    +0.292 HD
ENDBRANCH   4   7
BRANCH   1   9
ATOM      9  C   UNL     1       0.276   1.246  -0.039  0.00  0.00    +0.176 C 
BRANCH   9  10
ATOM     10  O   UNL     1       0.032   2.293  -0.946  0.00  0.00    -0.384 OA
ATOM     11  H   UNL     1      -0.166   1.895  -1.833  0.00  0.00    +0.210 HD
ENDBRANCH   9  10
BRANCH   9  12
ATOM     12  C   UNL     1      -0.863   0.209  -0.048  0.00  0.00    +0.119 C 
BRANCH  12  13
ATOM     13  N   UNL     1      -2.137   0.867   0.291  0.00  0.00    -0.308 NA
ATOM     14  H   UNL     1      -2.099   1.112   1.309  0.00  0.00    +0.123 HD
BRANCH  13  16
ATOM     15  C   UNL     1      -4.566   0.829   0.603  0.00  0.00    +0.027 C 
ATOM     16  C   UNL     1      -3.356   0.058   0.034  0.00  0.00    +0.011 C 
ATOM     17  C   UNL     1      -3.580  -0.120  -1.483  0.00  0.00    +0.027 C 
ATOM     18  C   UNL     1      -3.288  -1.323   0.726  0.00  0.00    +0.027 C 
ENDBRANCH  13  16
ENDBRANCH  12  13
ENDBRANCH   9  12
ENDBRANCH   1   9
BRANCH   3  19
ATOM     19  C   UNL     1       4.749   0.003   1.649  0.00  0.00    +0.214 C 
BRANCH  19  20
ATOM     20  O   UNL     1       4.814  -1.276   2.219  0.00  0.00    -0.389 OA
ATOM     21  H   UNL     1       3.981  -1.394   2.746  0.00  0.00    +0.210 HD
ENDBRANCH  19  20
ENDBRANCH   3  19
TORSDOF 8
