REMARK  Name = 
REMARK  3 active torsions:
REMARK  status: ('A' for Active; 'I' for Inactive)
REMARK    1  A    between atoms: C_1  and  N_2
REMARK    2  A    between atoms: N_5  and  C_6
REMARK    3  A    between atoms: C_6  and  C_7
REMARK                            x       y       z     vdW  Elec       q    Type
REMARK                         _______ _______ _______ _____ _____    ______ ____
ROOT
ATOM      1  C   UNL     1      -0.160   0.631   0.570  0.00  0.00    +0.239 C 
ATOM      2  O   UNL     1       0.303   1.804   0.604  0.00  0.00    -0.273 OA
ATOM      3  N   UNL     1      -1.504   0.418   0.084  0.00  0.00    -0.221 N 
ATOM      4  C   UNL     1      -1.970  -0.869  -0.332  0.00  0.00    +0.055 A 
ATOM      5  C   UNL     1      -1.348  -1.513  -1.414  0.00  0.00    +0.025 A 
ATOM      6  C   UNL     1      -1.777  -2.774  -1.828  0.00  0.00    +0.002 A 
ATOM      7  C   UNL     1      -2.836  -3.399  -1.171  0.00  0.00    +0.001 A 
ATOM      8  C   UNL     1      -3.475  -2.759  -0.106  0.00  0.00    +0.015 A 
ATOM      9  C   UNL     1      -3.064  -1.479   0.312  0.00  0.00    +0.059 A 
ATOM     10  C   UNL     1      -3.751  -0.839   1.460  0.00  0.00    +0.250 C 
ATOM     11  O   UNL     1      -4.184  -1.577   2.387  0.00  0.00    -0.270 OA
ATOM     12  N   UNL     1      -4.004   0.575   1.541  0.00  0.00    -0.279 N 
ATOM     13  C   UNL     1      -3.627   1.567   0.570  0.00  0.00    +0.075 A 
ATOM     14  C   UNL     1      -2.392   1.522  -0.102  0.00  0.00    +0.153 A 
ATOM     15  N   UNL     1      -2.036   2.537  -0.938  0.00  0.00    -0.238 NA
ATOM     16  C   UNL     1      -2.841   3.610  -1.151  0.00  0.00    +0.113 A 
ATOM     17  C   UNL     1      -4.069   3.701  -0.498  0.00  0.00    +0.022 A 
ATOM     18  C   UNL     1      -4.455   2.681   0.371  0.00  0.00    +0.028 A 
ATOM     19  H   UNL     1      -4.631   0.888   2.317  0.00  0.00    +0.155 HD
ENDROOT
BRANCH   1  20
ATOM     20  C   UNL     1       0.646  -0.502   1.184  0.00  0.00    +0.181 C 
BRANCH  20  25
ATOM     21  C   UNL     1       6.091  -0.598  -0.081  0.00  0.00    +0.105 C 
ATOM     22  N   UNL     1       4.668  -0.623   0.289  0.00  0.00    -0.303 NA
ATOM     23  C   UNL     1       3.823  -0.681  -0.924  0.00  0.00    +0.099 C 
ATOM     24  C   UNL     1       2.345  -0.365  -0.615  0.00  0.00    +0.100 C 
ATOM     25  N   UNL     1       2.083  -0.503   0.829  0.00  0.00    -0.292 NA
ATOM     26  C   UNL     1       2.893   0.426   1.647  0.00  0.00    +0.100 C 
ATOM     27  C   UNL     1       4.328   0.557   1.103  0.00  0.00    +0.099 C 
ENDBRANCH  20  25
ENDBRANCH   1  20
TORSDOF 2
