REMARK  Name = 
REMARK  3 active torsions:
REMARK  status: ('A' for Active; 'I' for Inactive)
REMARK    1  A    between atoms: C_1  and  N_2
REMARK    2  A    between atoms: C_3  and  C_4
REMARK    3  A    between atoms: C_13  and  O_14
REMARK                            x       y       z     vdW  Elec       q    Type
REMARK                         _______ _______ _______ _____ _____    ______ ____
ROOT
ATOM      1  C   UNL     1      -0.291   3.010   1.038  0.00  0.00    +0.158 C 
ATOM      2  N   UNL     1      -1.005   1.824   0.559  0.00  0.00    -0.197 N 
ATOM      3  C   UNL     1      -0.340   0.550   0.394  0.00  0.00    +0.155 C 
ATOM      4  C   UNL     1      -1.025  -0.605   0.181  0.00  0.00    +0.153 C 
ATOM      5  C   UNL     1      -2.526  -0.701   0.202  0.00  0.00    +0.045 A 
ATOM      6  C   UNL     1      -3.347   0.436   0.059  0.00  0.00    +0.119 A 
ATOM      7  C   UNL     1      -4.743   0.315   0.027  0.00  0.00    +0.029 A 
ATOM      8  C   UNL     1      -5.341  -0.936   0.164  0.00  0.00    +0.002 A 
ATOM      9  C   UNL     1      -4.549  -2.067   0.351  0.00  0.00    +0.001 A 
ATOM     10  C   UNL     1      -3.156  -1.953   0.378  0.00  0.00    +0.013 A 
ATOM     11  S   UNL     1      -2.624   2.014  -0.009  0.00  0.00    +0.075 S 
ATOM     12  O   UNL     1      -3.378   2.952   0.892  0.00  0.00    -0.150 OA
ATOM     13  O   UNL     1      -2.620   2.531  -1.420  0.00  0.00    -0.150 OA
ENDROOT
BRANCH   3  14
ATOM     14  C   UNL     1       1.143   0.501   0.413  0.00  0.00    +0.268 C 
ATOM     15  O   UNL     1       1.767   0.949   1.412  0.00  0.00    -0.268 OA
ATOM     16  N   UNL     1       1.860  -0.012  -0.722  0.00  0.00    -0.265 N 
ATOM     17  C   UNL     1       3.255  -0.350  -0.714  0.00  0.00    +0.125 A 
ATOM     18  N   UNL     1       3.970  -0.237  -1.868  0.00  0.00    -0.240 NA
ATOM     19  C   UNL     1       5.287  -0.566  -1.938  0.00  0.00    +0.113 A 
ATOM     20  C   UNL     1       5.948  -1.048  -0.806  0.00  0.00    +0.020 A 
ATOM     21  C   UNL     1       5.238  -1.197   0.386  0.00  0.00    +0.005 A 
ATOM     22  C   UNL     1       3.885  -0.855   0.438  0.00  0.00    +0.044 A 
ATOM     23  H   UNL     1       1.356  -0.056  -1.637  0.00  0.00    +0.157 HD
ENDBRANCH   3  14
BRANCH   4  24
ATOM     24  O   UNL     1      -0.276  -1.764  -0.063  0.00  0.00    -0.504 OA
ATOM     25  H   UNL     1      -0.673  -2.624  -0.415  0.00  0.00    +0.292 HD
ENDBRANCH   4  24
TORSDOF 2
