REMARK  Name = 
REMARK  11 active torsions:
REMARK  status: ('A' for Active; 'I' for Inactive)
REMARK    1  A    between atoms: O_1  and  C_2
REMARK    2  A    between atoms: C_2  and  C_3
REMARK    3  A    between atoms: C_2  and  C_28
REMARK    4  A    between atoms: C_3  and  C_4
REMARK    5  A    between atoms: C_4  and  O_5
REMARK    6  A    between atoms: C_4  and  C_6
REMARK    7  A    between atoms: C_7  and  C_8
REMARK    8  A    between atoms: C_9  and  C_25
REMARK    9  A    between atoms: C_17  and  C_18
REMARK   10  A    between atoms: C_28  and  C_29
REMARK   11  A    between atoms: C_29  and  O_30
REMARK                            x       y       z     vdW  Elec       q    Type
REMARK                         _______ _______ _______ _____ _____    ______ ____
ROOT
ATOM      1  C   UNL     1      -1.270   0.905  -0.003  0.00  0.00    +0.005 A 
ATOM      2  C   UNL     1      -1.498   2.267   0.286  0.00  0.00    +0.053 A 
ATOM      3  N   UNL     1      -2.733   2.677   0.672  0.00  0.00    -0.251 NA
ATOM      4  C   UNL     1      -3.793   1.836   0.748  0.00  0.00    +0.072 A 
ATOM      5  C   UNL     1      -5.042   2.337   1.133  0.00  0.00    +0.028 A 
ATOM      6  C   UNL     1      -6.151   1.492   1.189  0.00  0.00    +0.002 A 
ATOM      7  C   UNL     1      -6.020   0.145   0.855  0.00  0.00    +0.001 A 
ATOM      8  C   UNL     1      -4.778  -0.367   0.471  0.00  0.00    +0.010 A 
ATOM      9  C   UNL     1      -3.640   0.469   0.426  0.00  0.00    +0.009 A 
ATOM     10  C   UNL     1      -2.358  -0.005   0.052  0.00  0.00    +0.000 A 
ENDROOT
BRANCH  10  11
ATOM     11  C   UNL     1      -2.149  -1.431  -0.307  0.00  0.00    -0.016 A 
ATOM     12  C   UNL     1      -2.235  -2.430   0.677  0.00  0.00    +0.011 A 
ATOM     13  C   UNL     1      -2.000  -3.767   0.344  0.00  0.00    +0.039 A 
ATOM     14  C   UNL     1      -1.672  -4.115  -0.970  0.00  0.00    +0.123 A 
ATOM     15  F   UNL     1      -1.439  -5.412  -1.290  0.00  0.00    -0.205 F 
ATOM     16  C   UNL     1      -1.580  -3.125  -1.953  0.00  0.00    +0.039 A 
ATOM     17  C   UNL     1      -1.819  -1.787  -1.624  0.00  0.00    +0.011 A 
ENDBRANCH  10  11
BRANCH   2  18
ATOM     18  C   UNL     1      -0.371   3.269   0.278  0.00  0.00    +0.038 C 
ATOM     19  C   UNL     1      -0.729   4.661  -0.230  0.00  0.00    +0.010 C 
ATOM     20  C   UNL     1       0.068   3.716  -1.109  0.00  0.00    +0.010 C 
ENDBRANCH   2  18
BRANCH   1  22
ATOM     21  C   UNL     1       0.736  -0.481   0.347  0.00  0.00    +0.005 C 
ATOM     22  C   UNL     1       0.096   0.455  -0.361  0.00  0.00    +0.008 C 
BRANCH  21  23
ATOM     23  C   UNL     1       2.117  -0.959  -0.023  0.00  0.00    +0.140 C 
BRANCH  23  24
ATOM     24  O   UNL     1       2.136  -1.380  -1.363  0.00  0.00    -0.388 OA
ATOM     25  H   UNL     1       1.630  -2.235  -1.403  0.00  0.00    +0.210 HD
ENDBRANCH  23  24
BRANCH  23  26
ATOM     26  C   UNL     1       3.157   0.158   0.199  0.00  0.00    +0.067 C 
BRANCH  26  27
ATOM     27  C   UNL     1       4.602  -0.257  -0.161  0.00  0.00    +0.128 C 
BRANCH  27  28
ATOM     28  O   UNL     1       5.418   0.887  -0.155  0.00  0.00    -0.391 OA
ATOM     29  H   UNL     1       5.277   1.348  -1.021  0.00  0.00    +0.210 HD
ENDBRANCH  27  28
BRANCH  27  30
ATOM     30  C   UNL     1       5.173  -1.280   0.837  0.00  0.00    +0.151 C 
BRANCH  30  31
ATOM     31  C   UNL     1       6.583  -1.643   0.488  0.00  0.00    +0.307 C 
ATOM     32  O   UNL     1       6.819  -2.374  -0.510  0.00  0.00    -0.251 OA
BRANCH  31  33
ATOM     33  O   UNL     1       7.636  -1.147   1.250  0.00  0.00    -0.481 OA
ATOM     34  H   UNL     1       8.597  -1.367   1.015  0.00  0.00    +0.295 HD
ENDBRANCH  31  33
ENDBRANCH  30  31
ENDBRANCH  27  30
ENDBRANCH  26  27
ENDBRANCH  23  26
ENDBRANCH  21  23
ENDBRANCH   1  22
TORSDOF 11
