REMARK  Name = 
REMARK  15 active torsions:
REMARK  status: ('A' for Active; 'I' for Inactive)
REMARK    1  A    between atoms: C_3  and  C_4
REMARK    2  A    between atoms: C_3  and  C_5
REMARK    3  A    between atoms: C_6  and  C_22
REMARK    4  A    between atoms: C_10  and  N_11
REMARK    5  A    between atoms: C_12  and  C_14
REMARK    6  A    between atoms: C_14  and  N_15
REMARK    7  A    between atoms: C_14  and  C_16
REMARK    8  A    between atoms: C_22  and  O_24
REMARK    9  A    between atoms: O_24  and  C_25
REMARK   10  A    between atoms: C_25  and  O_26
REMARK   11  A    between atoms: O_26  and  C_27
REMARK   12  A    between atoms: C_27  and  C_29
REMARK   13  A    between atoms: C_29  and  C_30
REMARK   14  A    between atoms: C_29  and  C_31
REMARK   15  A    between atoms: C_29  and  C_32
REMARK                            x       y       z     vdW  Elec       q    Type
REMARK                         _______ _______ _______ _____ _____    ______ ____
ROOT
ATOM      1  C   UNL     1      -1.361  -1.550   1.257  0.00  0.00    +0.165 C 
ATOM      2  S   UNL     1      -1.290  -2.008  -0.517  0.00  0.00    -0.127 S 
ATOM      3  C   UNL     1       0.118  -0.855  -0.882  0.00  0.00    +0.042 C 
ATOM      4  C   UNL     1      -0.460   0.366  -1.619  0.00  0.00    +0.025 C 
ATOM      5  C   UNL     1       1.117  -1.565  -1.817  0.00  0.00    +0.025 C 
ATOM      6  C   UNL     1       0.739  -0.398   0.476  0.00  0.00    +0.201 C 
ATOM      7  N   UNL     1      -0.335  -0.565   1.421  0.00  0.00    -0.271 N 
ATOM      8  C   UNL     1      -1.354   0.361   1.966  0.00  0.00    +0.240 C 
ATOM      9  O   UNL     1      -1.343   1.545   2.392  0.00  0.00    -0.273 OA
ATOM     10  C   UNL     1      -2.412  -0.668   1.717  0.00  0.00    +0.190 C 
ENDROOT
BRANCH  10  11
ATOM     11  N   UNL     1      -3.353  -0.246   0.676  0.00  0.00    -0.300 N 
ATOM     12  C   UNL     1      -4.410  -1.109   0.226  0.00  0.00    +0.235 C 
ATOM     13  O   UNL     1      -4.623  -2.201   0.821  0.00  0.00    -0.274 OA
ATOM     14  H   UNL     1      -3.288   0.726   0.301  0.00  0.00    +0.150 HD
BRANCH  12  15
ATOM     15  C   UNL     1      -5.297  -0.732  -0.938  0.00  0.00    +0.168 C 
BRANCH  15  16
ATOM     16  C   UNL     1      -6.575  -0.061  -0.466  0.00  0.00    -0.022 A 
ATOM     17  C   UNL     1      -7.823  -0.554  -0.889  0.00  0.00    +0.005 A 
ATOM     18  C   UNL     1      -9.007   0.061  -0.471  0.00  0.00    +0.000 A 
ATOM     19  C   UNL     1      -8.957   1.178   0.367  0.00  0.00    +0.000 A 
ATOM     20  C   UNL     1      -7.723   1.684   0.785  0.00  0.00    +0.000 A 
ATOM     21  C   UNL     1      -6.537   1.074   0.368  0.00  0.00    +0.005 A 
ENDBRANCH  15  16
BRANCH  15  22
ATOM     22  N   UNL     1      -4.582   0.101  -1.911  0.00  0.00    -0.316 NA
ATOM     23  H   UNL     1      -5.144   0.125  -2.792  0.00  0.00    +0.119 HD
ATOM     24  H   UNL     1      -4.524   1.090  -1.571  0.00  0.00    +0.119 HD
ENDBRANCH  15  22
ENDBRANCH  12  15
ENDBRANCH  10  11
BRANCH   6  25
ATOM     25  C   UNL     1       1.925  -1.215   0.917  0.00  0.00    +0.332 C 
ATOM     26  O   UNL     1       1.758  -2.315   1.513  0.00  0.00    -0.249 OA
BRANCH  25  27
ATOM     27  O   UNL     1       3.211  -0.772   0.595  0.00  0.00    -0.426 OA
BRANCH  27  28
ATOM     28  C   UNL     1       4.382  -1.523   0.895  0.00  0.00    +0.472 C 
BRANCH  28  29
ATOM     29  O   UNL     1       5.524  -0.854   0.375  0.00  0.00    -0.427 OA
BRANCH  29  30
ATOM     30  C   UNL     1       5.950   0.397   0.837  0.00  0.00    +0.315 C 
ATOM     31  O   UNL     1       5.373   0.935   1.823  0.00  0.00    -0.250 OA
BRANCH  30  32
ATOM     32  C   UNL     1       7.149   1.062   0.190  0.00  0.00    +0.059 C 
ATOM     33  C   UNL     1       7.058   0.908  -1.340  0.00  0.00    +0.022 C 
ATOM     34  C   UNL     1       7.201   2.565   0.537  0.00  0.00    +0.022 C 
ATOM     35  C   UNL     1       8.428   0.375   0.699  0.00  0.00    +0.022 C 
ENDBRANCH  30  32
ENDBRANCH  29  30
ENDBRANCH  28  29
ENDBRANCH  27  28
ENDBRANCH  25  27
ENDBRANCH   6  25
TORSDOF 10
