REMARK  Name = 
REMARK  12 active torsions:
REMARK  status: ('A' for Active; 'I' for Inactive)
REMARK    1  A    between atoms: N_2  and  C_3
REMARK    2  A    between atoms: C_7  and  C_8
REMARK    3  A    between atoms: C_8  and  O_10
REMARK    4  A    between atoms: O_10  and  C_11
REMARK    5  A    between atoms: C_11  and  O_12
REMARK    6  A    between atoms: O_12  and  C_13
REMARK    7  A    between atoms: C_13  and  C_15
REMARK    8  A    between atoms: C_15  and  C_16
REMARK    9  A    between atoms: C_15  and  C_17
REMARK   10  A    between atoms: C_15  and  C_18
REMARK   11  A    between atoms: C_19  and  C_20
REMARK   12  A    between atoms: C_19  and  C_21
REMARK                            x       y       z     vdW  Elec       q    Type
REMARK                         _______ _______ _______ _____ _____    ______ ____
ROOT
ATOM      1  C   UNL     1      -2.368   2.576   1.634  0.00  0.00    +0.223 C 
ATOM      2  C   UNL     1      -1.061   2.883   0.969  0.00  0.00    +0.244 C 
ATOM      3  O   UNL     1      -0.671   3.709   0.102  0.00  0.00    -0.273 OA
ATOM      4  N   UNL     1      -0.445   1.743   1.690  0.00  0.00    -0.270 N 
ATOM      5  C   UNL     1       0.414   0.661   1.283  0.00  0.00    +0.201 C 
ATOM      6  C   UNL     1      -0.316  -0.642   1.761  0.00  0.00    +0.042 C 
ATOM      7  C   UNL     1      -0.273  -1.714   0.660  0.00  0.00    +0.025 C 
ATOM      8  C   UNL     1       0.261  -1.228   3.065  0.00  0.00    +0.025 C 
ATOM      9  S   UNL     1      -2.091  -0.211   2.092  0.00  0.00    -0.127 S 
ATOM     10  C   UNL     1      -1.680   1.545   2.383  0.00  0.00    +0.169 C 
ENDROOT
BRANCH   1  12
ATOM     11  C   UNL     1      -3.212   1.418  -0.384  0.00  0.00    +0.179 C 
ATOM     12  N   UNL     1      -3.408   2.095   0.711  0.00  0.00    -0.261 NA
ATOM     13  N   UNL     1      -4.323   0.915  -1.152  0.00  0.00    -0.321 N 
ATOM     14  C   UNL     1      -4.051  -0.060  -2.211  0.00  0.00    +0.106 C 
ATOM     15  C   UNL     1      -3.877  -1.455  -1.597  0.00  0.00    +0.019 C 
ATOM     16  C   UNL     1      -5.194  -2.201  -1.286  0.00  0.00    +0.002 C 
ATOM     17  C   UNL     1      -6.437  -1.345  -0.965  0.00  0.00    +0.002 C 
ATOM     18  C   UNL     1      -6.189  -0.191   0.022  0.00  0.00    +0.019 C 
ATOM     19  C   UNL     1      -5.704   1.081  -0.689  0.00  0.00    +0.106 C 
ENDBRANCH   1  12
BRANCH   5  20
ATOM     20  C   UNL     1       1.807   0.856   1.819  0.00  0.00    +0.332 C 
ATOM     21  O   UNL     1       1.988   1.426   2.931  0.00  0.00    -0.249 OA
BRANCH  20  22
ATOM     22  O   UNL     1       2.891   0.359   1.091  0.00  0.00    -0.426 OA
BRANCH  22  23
ATOM     23  C   UNL     1       4.235   0.442   1.555  0.00  0.00    +0.472 C 
BRANCH  23  24
ATOM     24  O   UNL     1       5.115  -0.054   0.554  0.00  0.00    -0.427 OA
BRANCH  24  25
ATOM     25  C   UNL     1       5.274   0.564  -0.692  0.00  0.00    +0.315 C 
ATOM     26  O   UNL     1       4.665   1.641  -0.943  0.00  0.00    -0.250 OA
BRANCH  25  27
ATOM     27  C   UNL     1       6.205  -0.057  -1.714  0.00  0.00    +0.059 C 
ATOM     28  C   UNL     1       6.106   0.666  -3.074  0.00  0.00    +0.022 C 
ATOM     29  C   UNL     1       7.650   0.043  -1.194  0.00  0.00    +0.022 C 
ATOM     30  C   UNL     1       5.827  -1.539  -1.907  0.00  0.00    +0.022 C 
ENDBRANCH  25  27
ENDBRANCH  24  25
ENDBRANCH  23  24
ENDBRANCH  22  23
ENDBRANCH  20  22
ENDBRANCH   5  20
TORSDOF 7
