REMARK  Name = 
REMARK  4 active torsions:
REMARK  status: ('A' for Active; 'I' for Inactive)
REMARK    1  A    between atoms: C_1  and  N_2
REMARK    2  A    between atoms: C_1  and  C_16
REMARK    3  A    between atoms: C_19  and  C_20
REMARK    4  A    between atoms: C_20  and  N_21
REMARK                            x       y       z     vdW  Elec       q    Type
REMARK                         _______ _______ _______ _____ _____    ______ ____
ROOT
ATOM      1  C   UNL     1      -1.220   0.540   0.024  0.00  0.00    -0.033 A 
ATOM      2  C   UNL     1      -0.853   0.677  -1.323  0.00  0.00    +0.005 A 
ATOM      3  C   UNL     1       0.383   0.201  -1.772  0.00  0.00    +0.005 A 
ATOM      4  C   UNL     1       1.270  -0.419  -0.877  0.00  0.00    -0.033 A 
ATOM      5  C   UNL     1       0.905  -0.552   0.472  0.00  0.00    +0.005 A 
ATOM      6  C   UNL     1      -0.329  -0.072   0.920  0.00  0.00    +0.005 A 
ENDROOT
BRANCH   1   7
ATOM      7  C   UNL     1      -2.579   1.004   0.480  0.00  0.00    +0.119 C 
BRANCH   7   8
ATOM      8  N   UNL     1      -3.645   0.188  -0.142  0.00  0.00    -0.297 NA
ATOM      9  C   UNL     1      -3.662  -1.238   0.281  0.00  0.00    +0.086 C 
ATOM     10  C   UNL     1      -3.710  -1.514   1.808  0.00  0.00    +0.030 C 
ATOM     11  C   UNL     1      -4.945  -0.987   2.555  0.00  0.00    +0.082 C 
ATOM     12  N   UNL     1      -6.186  -1.357   1.865  0.00  0.00    -0.315 NA
ATOM     13  C   UNL     1      -7.363  -0.790   2.540  0.00  0.00    +0.096 C 
ATOM     14  C   UNL     1      -8.526  -0.676   1.550  0.00  0.00    +0.096 C 
ATOM     15  N   UNL     1      -8.263   0.399   0.583  0.00  0.00    -0.315 NA
ATOM     16  C   UNL     1      -9.168   0.294  -0.569  0.00  0.00    +0.082 C 
ATOM     17  C   UNL     1      -8.884   1.394  -1.605  0.00  0.00    +0.030 C 
ATOM     18  C   UNL     1      -7.437   1.367  -2.126  0.00  0.00    +0.082 C 
ATOM     19  N   UNL     1      -6.582   2.223  -1.288  0.00  0.00    -0.315 NA
ATOM     20  C   UNL     1      -5.182   1.770  -1.277  0.00  0.00    +0.096 C 
ATOM     21  C   UNL     1      -4.970   0.835  -0.087  0.00  0.00    +0.100 C 
ATOM     22  H   UNL     1      -6.274  -2.401   1.874  0.00  0.00    +0.122 HD
ATOM     23  H   UNL     1      -8.441   1.315   1.060  0.00  0.00    +0.122 HD
ATOM     24  H   UNL     1      -6.614   3.198  -1.674  0.00  0.00    +0.122 HD
ENDBRANCH   7   8
ENDBRANCH   1   7
BRANCH   4  25
ATOM     25  C   UNL     1       2.578  -0.988  -1.361  0.00  0.00    +0.119 C 
BRANCH  25  26
ATOM     26  N   UNL     1       3.709  -0.413  -0.602  0.00  0.00    -0.297 NA
ATOM     27  C   UNL     1       4.046   0.945  -1.093  0.00  0.00    +0.086 C 
ATOM     28  C   UNL     1       4.628   1.793   0.052  0.00  0.00    +0.030 C 
ATOM     29  C   UNL     1       5.399   3.036  -0.459  0.00  0.00    +0.082 C 
ATOM     30  N   UNL     1       6.795   3.075   0.012  0.00  0.00    -0.315 NA
ATOM     31  C   UNL     1       7.649   2.040  -0.608  0.00  0.00    +0.096 C 
ATOM     32  C   UNL     1       8.247   1.077   0.440  0.00  0.00    +0.096 C 
ATOM     33  N   UNL     1       8.837  -0.107  -0.207  0.00  0.00    -0.315 NA
ATOM     34  C   UNL     1       9.134  -1.193   0.748  0.00  0.00    +0.082 C 
ATOM     35  C   UNL     1       7.882  -1.973   1.216  0.00  0.00    +0.030 C 
ATOM     36  C   UNL     1       7.280  -2.877   0.119  0.00  0.00    +0.082 C 
ATOM     37  N   UNL     1       5.918  -3.337   0.452  0.00  0.00    -0.315 NA
ATOM     38  C   UNL     1       4.885  -2.281   0.530  0.00  0.00    +0.096 C 
ATOM     39  C   UNL     1       4.890  -1.309  -0.663  0.00  0.00    +0.100 C 
ATOM     40  H   UNL     1       6.811   3.032   1.059  0.00  0.00    +0.122 HD
ATOM     41  H   UNL     1       8.213  -0.459  -0.965  0.00  0.00    +0.122 HD
ATOM     42  H   UNL     1       5.623  -4.017  -0.290  0.00  0.00    +0.122 HD
ENDBRANCH  25  26
ENDBRANCH   4  25
TORSDOF 4
