REMARK  Name = 
REMARK  35 active torsions:
REMARK  status: ('A' for Active; 'I' for Inactive)
REMARK    1  A    between atoms: C_1  and  O_2
REMARK    2  A    between atoms: O_2  and  C_3
REMARK    3  A    between atoms: C_3  and  C_4
REMARK    4  A    between atoms: C_3  and  C_70
REMARK    5  A    between atoms: C_10  and  O_11
REMARK    6  A    between atoms: O_11  and  C_12
REMARK    7  A    between atoms: C_14  and  O_15
REMARK    8  A    between atoms: O_15  and  C_16
REMARK    9  A    between atoms: C_18  and  O_19
REMARK   10  A    between atoms: C_20  and  O_21
REMARK   11  A    between atoms: C_22  and  C_23
REMARK   12  A    between atoms: C_25  and  O_26
REMARK   13  A    between atoms: C_27  and  C_28
REMARK   14  A    between atoms: C_30  and  C_31
REMARK   15  A    between atoms: C_32  and  O_33
REMARK   16  A    between atoms: C_35  and  O_36
REMARK   17  A    between atoms: C_40  and  O_41
REMARK   18  A    between atoms: O_41  and  C_42
REMARK   19  A    between atoms: C_44  and  O_45
REMARK   20  A    between atoms: O_45  and  C_46
REMARK   21  A    between atoms: C_48  and  O_49
REMARK   22  A    between atoms: O_49  and  C_50
REMARK   23  A    between atoms: C_52  and  C_53
REMARK   24  A    between atoms: C_52  and  O_54
REMARK   25  A    between atoms: C_55  and  O_56
REMARK   26  A    between atoms: C_57  and  C_58
REMARK   27  A    between atoms: C_60  and  O_61
REMARK   28  A    between atoms: C_62  and  C_63
REMARK   29  A    between atoms: C_65  and  O_66
REMARK   30  A    between atoms: C_67  and  C_68
REMARK   31  A    between atoms: C_70  and  C_72
REMARK   32  A    between atoms: C_72  and  O_73
REMARK   33  A    between atoms: C_72  and  C_74
REMARK   34  A    between atoms: C_74  and  C_75
REMARK   35  A    between atoms: C_74  and  O_76
REMARK                            x       y       z     vdW  Elec       q    Type
REMARK                         _______ _______ _______ _____ _____    ______ ____
ROOT
ATOM      1  C   UNL     1       0.244  -2.596   1.831  0.00  0.00    +0.066 C 
ATOM      2  C   UNL     1      -0.855  -1.555   2.119  0.00  0.00    +0.045 C 
ATOM      3  C   UNL     1      -1.652  -1.171   0.897  0.00  0.00    -0.032 A 
ATOM      4  C   UNL     1      -2.975  -0.753   1.064  0.00  0.00    +0.013 A 
ATOM      5  C   UNL     1      -3.702  -0.242  -0.016  0.00  0.00    -0.007 A 
ATOM      6  C   UNL     1      -5.025   0.168   0.175  0.00  0.00    +0.055 A 
ATOM      7  C   UNL     1      -5.739   0.818  -0.831  0.00  0.00    +0.131 A 
ATOM      8  C   UNL     1      -5.061   1.173  -2.029  0.00  0.00    +0.033 A 
ATOM      9  C   UNL     1      -5.590   2.243  -2.951  0.00  0.00    +0.051 C 
ATOM     10  C   UNL     1      -3.782   0.615  -2.293  0.00  0.00    +0.134 A 
ATOM     11  C   UNL     1      -3.109  -0.136  -1.293  0.00  0.00    +0.066 A 
ATOM     12  C   UNL     1      -1.829  -0.724  -1.497  0.00  0.00    +0.139 A 
ATOM     13  C   UNL     1      -1.069  -1.173  -0.387  0.00  0.00    +0.065 A 
ATOM     14  C   UNL     1       0.315  -1.704  -0.552  0.00  0.00    +0.196 C 
ATOM     15  O   UNL     1       0.873  -1.696  -1.684  0.00  0.00    -0.289 OA
ATOM     16  C   UNL     1       1.123  -2.184   0.622  0.00  0.00    +0.198 C 
ENDROOT
BRANCH  10  17
ATOM     17  O   UNL     1      -3.148   0.858  -3.516  0.00  0.00    -0.506 OA
ATOM     18  H   UNL     1      -3.616   1.246  -4.326  0.00  0.00    +0.292 HD
ENDBRANCH  10  17
BRANCH  12  19
ATOM     19  O   UNL     1      -1.306  -0.914  -2.777  0.00  0.00    -0.505 OA
ATOM     20  H   UNL     1      -1.887  -1.083  -3.590  0.00  0.00    +0.292 HD
ENDBRANCH  12  19
BRANCH   1  21
ATOM     21  C   UNL     1      -0.285  -4.066   1.777  0.00  0.00    +0.193 C 
BRANCH  21  23
ATOM     22  C   UNL     1       1.223  -5.500   2.851  0.00  0.00    +0.194 C 
ATOM     23  O   UNL     1       0.798  -4.972   1.611  0.00  0.00    -0.372 OA
ENDBRANCH  21  23
BRANCH  21  24
ATOM     24  C   UNL     1      -1.327  -4.302   0.694  0.00  0.00    +0.193 C 
ATOM     25  O   UNL     1      -2.496  -4.067   0.960  0.00  0.00    -0.292 OA
BRANCH  24  26
ATOM     26  C   UNL     1      -1.018  -4.859  -0.689  0.00  0.00    +0.211 C 
BRANCH  26  27
ATOM     27  O   UNL     1       0.355  -4.784  -0.976  0.00  0.00    -0.382 OA
ATOM     28  H   UNL     1       0.445  -4.720  -1.960  0.00  0.00    +0.210 HD
ENDBRANCH  26  27
BRANCH  26  29
ATOM     29  C   UNL     1      -1.514  -6.320  -0.801  0.00  0.00    +0.147 C 
ATOM     30  C   UNL     1      -1.362  -6.882  -2.220  0.00  0.00    +0.041 C 
BRANCH  29  31
ATOM     31  O   UNL     1      -0.870  -7.149   0.135  0.00  0.00    -0.389 OA
ATOM     32  H   UNL     1       0.090  -7.189  -0.112  0.00  0.00    +0.210 HD
ENDBRANCH  29  31
ENDBRANCH  26  29
ENDBRANCH  24  26
ENDBRANCH  21  24
ENDBRANCH   1  21
BRANCH   7  33
ATOM     33  O   UNL     1      -7.092   1.085  -0.545  0.00  0.00    -0.463 OA
BRANCH  33  34
ATOM     34  C   UNL     1      -8.148   1.359  -1.468  0.00  0.00    +0.310 C 
ATOM     35  C   UNL     1      -9.390   0.528  -1.083  0.00  0.00    +0.109 C 
ATOM     36  C   UNL     1     -10.701   1.316  -1.291  0.00  0.00    +0.158 C 
ATOM     37  C   UNL     1     -10.588   2.231  -2.524  0.00  0.00    +0.172 C 
ATOM     38  C   UNL     1      -9.309   3.127  -2.449  0.00  0.00    +0.150 C 
ATOM     39  C   UNL     1      -9.678   4.598  -2.241  0.00  0.00    +0.041 C 
ATOM     40  O   UNL     1      -8.444   2.740  -1.393  0.00  0.00    -0.336 OA
BRANCH  37  41
ATOM     41  O   UNL     1     -10.548   1.434  -3.684  0.00  0.00    -0.387 OA
ATOM     42  H   UNL     1     -10.793   2.026  -4.443  0.00  0.00    +0.210 HD
ENDBRANCH  37  41
BRANCH  36  43
ATOM     43  O   UNL     1     -10.937   2.126  -0.146  0.00  0.00    -0.345 OA
BRANCH  43  44
ATOM     44  C   UNL     1     -11.966   1.623   0.694  0.00  0.00    +0.254 C 
ATOM     45  C   UNL     1     -11.408   1.527   2.120  0.00  0.00    +0.095 C 
ATOM     46  C   UNL     1     -12.517   1.064   3.076  0.00  0.00    +0.150 C 
ATOM     47  C   UNL     1     -13.768   1.952   2.909  0.00  0.00    +0.172 C 
ATOM     48  C   UNL     1     -14.146   2.071   1.407  0.00  0.00    +0.149 C 
ATOM     49  C   UNL     1     -15.303   3.053   1.223  0.00  0.00    +0.041 C 
ATOM     50  O   UNL     1     -13.042   2.546   0.656  0.00  0.00    -0.346 OA
BRANCH  46  51
ATOM     51  O   UNL     1     -12.067   1.066   4.408  0.00  0.00    -0.389 OA
ATOM     52  H   UNL     1     -11.813   2.000   4.642  0.00  0.00    +0.210 HD
ENDBRANCH  46  51
BRANCH  47  53
ATOM     53  O   UNL     1     -14.838   1.445   3.672  0.00  0.00    -0.387 OA
ATOM     54  H   UNL     1     -15.064   0.550   3.311  0.00  0.00    +0.210 HD
ENDBRANCH  47  53
ENDBRANCH  43  44
ENDBRANCH  36  43
ENDBRANCH  33  34
ENDBRANCH   7  33
BRANCH  16  55
ATOM     55  O   UNL     1       2.007  -1.131   0.985  0.00  0.00    -0.340 OA
BRANCH  55  56
ATOM     56  C   UNL     1       3.278  -1.617   1.389  0.00  0.00    +0.254 C 
ATOM     57  C   UNL     1       4.141  -1.978   0.156  0.00  0.00    +0.095 C 
ATOM     58  C   UNL     1       5.652  -1.953   0.478  0.00  0.00    +0.157 C 
ATOM     59  C   UNL     1       5.910  -2.107   1.993  0.00  0.00    +0.172 C 
ATOM     60  C   UNL     1       5.046  -1.096   2.818  0.00  0.00    +0.149 C 
ATOM     61  C   UNL     1       5.892   0.088   3.290  0.00  0.00    +0.041 C 
ATOM     62  O   UNL     1       3.937  -0.586   2.089  0.00  0.00    -0.346 OA
BRANCH  59  63
ATOM     63  O   UNL     1       5.597  -3.423   2.374  0.00  0.00    -0.387 OA
ATOM     64  H   UNL     1       6.069  -3.589   3.233  0.00  0.00    +0.210 HD
ENDBRANCH  59  63
BRANCH  58  65
ATOM     65  O   UNL     1       6.205  -0.720   0.033  0.00  0.00    -0.345 OA
BRANCH  65  66
ATOM     66  C   UNL     1       7.370  -0.927  -0.745  0.00  0.00    +0.254 C 
ATOM     67  C   UNL     1       7.882   0.429  -1.250  0.00  0.00    +0.095 C 
ATOM     68  C   UNL     1       9.402   0.405  -1.537  0.00  0.00    +0.157 C 
ATOM     69  C   UNL     1       9.871  -1.024  -1.875  0.00  0.00    +0.172 C 
ATOM     70  C   UNL     1       9.430  -2.037  -0.765  0.00  0.00    +0.149 C 
ATOM     71  C   UNL     1      10.577  -2.445   0.166  0.00  0.00    +0.041 C 
ATOM     72  O   UNL     1       8.376  -1.535   0.046  0.00  0.00    -0.346 OA
BRANCH  69  73
ATOM     73  O   UNL     1      11.262  -1.048  -2.074  0.00  0.00    -0.387 OA
ATOM     74  H   UNL     1      11.436  -0.614  -2.950  0.00  0.00    +0.210 HD
ENDBRANCH  69  73
BRANCH  68  75
ATOM     75  O   UNL     1      10.098   0.864  -0.386  0.00  0.00    -0.345 OA
BRANCH  75  76
ATOM     76  C   UNL     1      10.862   2.029  -0.644  0.00  0.00    +0.254 C 
ATOM     77  C   UNL     1       9.934   3.267  -0.666  0.00  0.00    +0.098 C 
ATOM     78  C   UNL     1      10.750   4.564  -0.842  0.00  0.00    +0.096 C 
ATOM     79  C   UNL     1       9.809   5.777  -0.663  0.00  0.00    +0.044 C 
ATOM     80  C   UNL     1      11.877   4.587   0.220  0.00  0.00    +0.174 C 
ATOM     81  C   UNL     1      12.674   3.261   0.168  0.00  0.00    +0.149 C 
ATOM     82  C   UNL     1      13.776   3.240   1.229  0.00  0.00    +0.041 C 
ATOM     83  O   UNL     1      11.806   2.162   0.405  0.00  0.00    -0.346 OA
BRANCH  78  84
ATOM     84  O   UNL     1      11.292   4.569  -2.144  0.00  0.00    -0.386 OA
ATOM     85  H   UNL     1      11.724   5.448  -2.299  0.00  0.00    +0.210 HD
ENDBRANCH  78  84
BRANCH  80  86
ATOM     86  O   UNL     1      12.735   5.676  -0.018  0.00  0.00    -0.386 OA
ATOM     87  H   UNL     1      12.942   6.089   0.860  0.00  0.00    +0.210 HD
ENDBRANCH  80  86
ENDBRANCH  75  76
ENDBRANCH  68  75
ENDBRANCH  65  66
ENDBRANCH  58  65
ENDBRANCH  55  56
ENDBRANCH  16  55
TORSDOF 26
