REMARK  Name = 
REMARK  8 active torsions:
REMARK  status: ('A' for Active; 'I' for Inactive)
REMARK    1  A    between atoms: C_7  and  C_8
REMARK    2  A    between atoms: C_10  and  O_11
REMARK    3  A    between atoms: O_11  and  C_12
REMARK    4  A    between atoms: C_13  and  O_14
REMARK    5  A    between atoms: O_14  and  C_15
REMARK    6  A    between atoms: C_16  and  O_17
REMARK    7  A    between atoms: O_17  and  C_18
REMARK    8  A    between atoms: C_29  and  O_30
REMARK                            x       y       z     vdW  Elec       q    Type
REMARK                         _______ _______ _______ _____ _____    ______ ____
ROOT
ATOM      1  C   UNL     1       1.649  -2.095  -0.572  0.00  0.00    +0.074 C 
ATOM      2  C   UNL     1       1.615  -3.591  -0.913  0.00  0.00    +0.239 C 
ATOM      3  O   UNL     1       0.503  -4.074  -0.164  0.00  0.00    -0.464 OA
ATOM      4  C   UNL     1       0.176  -3.180   0.842  0.00  0.00    +0.312 C 
ATOM      5  O   UNL     1      -0.719  -3.398   1.700  0.00  0.00    -0.250 OA
ATOM      6  C   UNL     1       1.117  -2.038   0.855  0.00  0.00    +0.118 C 
ATOM      7  C   UNL     1       0.639  -0.615   1.198  0.00  0.00    +0.064 C 
ATOM      8  C   UNL     1       1.757   0.375   0.867  0.00  0.00    -0.030 A 
ATOM      9  C   UNL     1       1.698   1.667   1.435  0.00  0.00    +0.054 A 
ATOM     10  C   UNL     1       2.707   2.570   1.129  0.00  0.00    +0.167 A 
ATOM     11  C   UNL     1       3.738   2.250   0.312  0.00  0.00    +0.167 A 
ATOM     12  O   UNL     1       4.588   3.333   0.196  0.00  0.00    -0.453 OA
ATOM     13  C   UNL     1       4.055   4.402   0.990  0.00  0.00    +0.466 C 
ATOM     14  O   UNL     1       2.854   3.872   1.569  0.00  0.00    -0.453 OA
ATOM     15  C   UNL     1       3.851   0.998  -0.281  0.00  0.00    +0.056 A 
ATOM     16  C   UNL     1       2.843   0.039  -0.029  0.00  0.00    -0.011 A 
ATOM     17  C   UNL     1       2.987  -1.353  -0.646  0.00  0.00    +0.152 C 
ENDROOT
BRANCH   7  18
ATOM     18  C   UNL     1      -0.687  -0.236   0.544  0.00  0.00    -0.032 A 
ATOM     19  C   UNL     1      -0.745   0.380  -0.716  0.00  0.00    +0.054 A 
ATOM     20  C   UNL     1      -1.979   0.702  -1.306  0.00  0.00    +0.165 A 
ATOM     21  C   UNL     1      -3.177   0.410  -0.635  0.00  0.00    +0.204 A 
ATOM     22  C   UNL     1      -3.135  -0.208   0.641  0.00  0.00    +0.165 A 
ATOM     23  C   UNL     1      -1.886  -0.519   1.213  0.00  0.00    +0.054 A 
BRANCH  20  24
ATOM     24  O   UNL     1      -2.058   1.316  -2.567  0.00  0.00    -0.491 OA
ATOM     25  C   UNL     1      -0.935   1.667  -3.369  0.00  0.00    +0.277 C 
ENDBRANCH  20  24
BRANCH  21  26
ATOM     26  O   UNL     1      -4.371   0.761  -1.294  0.00  0.00    -0.488 OA
ATOM     27  C   UNL     1      -5.696   0.563  -0.814  0.00  0.00    +0.277 C 
ENDBRANCH  21  26
BRANCH  22  28
ATOM     28  O   UNL     1      -4.329  -0.504   1.318  0.00  0.00    -0.491 OA
ATOM     29  C   UNL     1      -4.413  -1.134   2.593  0.00  0.00    +0.277 C 
ENDBRANCH  22  28
ENDBRANCH   7  18
BRANCH  17  30
ATOM     30  O   UNL     1       3.384  -1.239  -1.989  0.00  0.00    -0.387 OA
ATOM     31  H   UNL     1       3.764  -2.118  -2.251  0.00  0.00    +0.210 HD
ENDBRANCH  17  30
TORSDOF 5
