REMARK  Name = 
REMARK  15 active torsions:
REMARK  status: ('A' for Active; 'I' for Inactive)
REMARK    1  A    between atoms: C_1  and  C_2
REMARK    2  A    between atoms: C_2  and  C_3
REMARK    3  A    between atoms: C_3  and  C_4
REMARK    4  A    between atoms: C_4  and  C_5
REMARK    5  A    between atoms: C_5  and  C_6
REMARK    6  A    between atoms: C_6  and  C_7
REMARK    7  A    between atoms: C_7  and  C_8
REMARK    8  A    between atoms: C_8  and  C_9
REMARK    9  A    between atoms: C_9  and  C_10
REMARK   10  A    between atoms: C_10  and  C_11
REMARK   11  A    between atoms: C_11  and  C_12
REMARK   12  A    between atoms: C_12  and  O_13
REMARK   13  A    between atoms: O_13  and  C_14
REMARK   14  A    between atoms: C_14  and  C_15
REMARK   15  A    between atoms: C_15  and  O_16
REMARK                            x       y       z     vdW  Elec       q    Type
REMARK                         _______ _______ _______ _____ _____    ______ ____
ROOT
ATOM      1  C   UNL     1      -1.222   0.967  -0.209  0.00  0.00    +0.000 C 
ENDROOT
BRANCH   1   2
ATOM      2  C   UNL     1      -0.071   0.397   0.634  0.00  0.00    +0.000 C 
BRANCH   2   3
ATOM      3  C   UNL     1       1.252   1.099   0.302  0.00  0.00    +0.000 C 
BRANCH   3   4
ATOM      4  C   UNL     1       2.408   0.512   1.124  0.00  0.00    -0.000 C 
BRANCH   4   5
ATOM      5  C   UNL     1       3.725   1.286   0.941  0.00  0.00    -0.000 C 
BRANCH   5   6
ATOM      6  C   UNL     1       4.284   1.291  -0.496  0.00  0.00    -0.000 C 
BRANCH   6   7
ATOM      7  C   UNL     1       4.520  -0.102  -1.112  0.00  0.00    -0.000 C 
BRANCH   7   9
ATOM      8  C   UNL     1       6.878  -0.448  -0.187  0.00  0.00    +0.004 C 
ATOM      9  C   UNL     1       5.463  -1.013  -0.307  0.00  0.00    -0.003 C 
ENDBRANCH   7   9
ENDBRANCH   6   7
ENDBRANCH   5   6
ENDBRANCH   4   5
ENDBRANCH   3   4
ENDBRANCH   2   3
ENDBRANCH   1   2
BRANCH   1  10
ATOM     10  C   UNL     1      -2.589   0.384   0.185  0.00  0.00    +0.002 C 
BRANCH  10  11
ATOM     11  C   UNL     1      -2.751  -1.084  -0.240  0.00  0.00    +0.028 C 
BRANCH  11  12
ATOM     12  C   UNL     1      -4.158  -1.603   0.058  0.00  0.00    +0.160 C 
BRANCH  12  13
ATOM     13  O   UNL     1      -5.097  -0.924  -0.752  0.00  0.00    -0.378 OA
BRANCH  13  14
ATOM     14  C   UNL     1      -6.418  -1.237  -0.353  0.00  0.00    +0.187 C 
BRANCH  14  15
ATOM     15  C   UNL     1      -6.958  -0.165   0.596  0.00  0.00    +0.184 C 
BRANCH  15  16
ATOM     16  O   UNL     1      -6.881   1.103   0.004  0.00  0.00    -0.393 OA
ATOM     17  H   UNL     1      -7.616   1.151  -0.662  0.00  0.00    +0.209 HD
ENDBRANCH  15  16
ENDBRANCH  14  15
ENDBRANCH  13  14
ENDBRANCH  12  13
ENDBRANCH  11  12
ENDBRANCH  10  11
ENDBRANCH   1  10
TORSDOF 14
