REMARK  Name = 
REMARK  42 active torsions:
REMARK  status: ('A' for Active; 'I' for Inactive)
REMARK    1  A    between atoms: C_1  and  C_2
REMARK    2  A    between atoms: C_2  and  C_3
REMARK    3  A    between atoms: C_3  and  C_4
REMARK    4  A    between atoms: C_3  and  C_5
REMARK    5  A    between atoms: C_5  and  C_6
REMARK    6  A    between atoms: C_6  and  C_7
REMARK    7  A    between atoms: C_7  and  C_8
REMARK    8  A    between atoms: C_8  and  C_9
REMARK    9  A    between atoms: N_11  and  C_12
REMARK   10  A    between atoms: C_12  and  C_13
REMARK   11  A    between atoms: C_12  and  C_16
REMARK   12  A    between atoms: C_13  and  C_14
REMARK   13  A    between atoms: C_14  and  N_15
REMARK   14  A    between atoms: N_18  and  C_19
REMARK   15  A    between atoms: C_19  and  C_20
REMARK   16  A    between atoms: C_19  and  C_23
REMARK   17  A    between atoms: C_20  and  C_21
REMARK   18  A    between atoms: C_20  and  O_22
REMARK   19  A    between atoms: N_25  and  C_26
REMARK   20  A    between atoms: C_26  and  C_27
REMARK   21  A    between atoms: C_26  and  C_30
REMARK   22  A    between atoms: C_27  and  C_28
REMARK   23  A    between atoms: C_28  and  N_29
REMARK   24  A    between atoms: N_32  and  C_33
REMARK   25  A    between atoms: C_39  and  C_83
REMARK   26  A    between atoms: C_43  and  C_44
REMARK   27  A    between atoms: C_44  and  C_45
REMARK   28  A    between atoms: C_45  and  N_46
REMARK   29  A    between atoms: C_50  and  C_51
REMARK   30  A    between atoms: C_51  and  C_52
REMARK   31  A    between atoms: C_52  and  N_53
REMARK   32  A    between atoms: C_57  and  C_58
REMARK   33  A    between atoms: C_58  and  C_59
REMARK   34  A    between atoms: C_59  and  C_60
REMARK   35  A    between atoms: C_59  and  C_61
REMARK   36  A    between atoms: C_65  and  C_66
REMARK   37  A    between atoms: C_66  and  C_67
REMARK   38  A    between atoms: C_76  and  C_77
REMARK   39  A    between atoms: C_77  and  C_78
REMARK   40  A    between atoms: C_78  and  N_79
REMARK   41  A    between atoms: C_83  and  C_84
REMARK   42  A    between atoms: C_83  and  O_85
REMARK                            x       y       z     vdW  Elec       q    Type
REMARK                         _______ _______ _______ _____ _____    ______ ____
ROOT
ATOM      1  C   UNL     1       0.568  -0.812   1.834  0.00  0.00    +0.160 C 
ATOM      2  C   UNL     1      -0.127  -2.174   1.606  0.00  0.00    +0.050 C 
ATOM      3  C   UNL     1      -0.881  -2.711   2.835  0.00  0.00    +0.106 C 
ATOM      4  N   UNL     1      -2.088  -1.950   3.152  0.00  0.00    -0.314 N 
ATOM      5  C   UNL     1      -3.291  -2.086   2.377  0.00  0.00    +0.236 C 
ATOM      6  O   UNL     1      -3.209  -2.235   1.130  0.00  0.00    -0.274 OA
ATOM      7  C   UNL     1      -4.649  -2.042   3.046  0.00  0.00    +0.187 C 
ATOM      8  N   UNL     1      -5.585  -2.951   2.359  0.00  0.00    -0.300 N 
ATOM      9  C   UNL     1      -6.889  -3.255   2.866  0.00  0.00    +0.234 C 
ATOM     10  O   UNL     1      -7.110  -3.152   4.103  0.00  0.00    -0.274 OA
ATOM     11  C   UNL     1      -8.049  -3.598   1.945  0.00  0.00    +0.160 C 
ATOM     12  N   UNL     1      -8.821  -2.381   1.652  0.00  0.00    -0.302 N 
ATOM     13  C   UNL     1     -10.143  -2.402   1.093  0.00  0.00    +0.234 C 
ATOM     14  O   UNL     1     -10.668  -3.494   0.744  0.00  0.00    -0.274 OA
ATOM     15  C   UNL     1     -10.947  -1.130   0.969  0.00  0.00    +0.160 C 
ATOM     16  N   UNL     1     -10.099  -0.052   0.454  0.00  0.00    -0.302 N 
ATOM     17  C   UNL     1      -9.988   0.248  -0.947  0.00  0.00    +0.234 C 
ATOM     18  O   UNL     1     -10.760  -0.305  -1.782  0.00  0.00    -0.274 OA
ATOM     19  C   UNL     1      -8.919   1.190  -1.446  0.00  0.00    +0.159 C 
ATOM     20  N   UNL     1      -7.607   0.573  -1.214  0.00  0.00    -0.302 N 
ATOM     21  C   UNL     1      -6.427   0.997  -1.916  0.00  0.00    +0.234 C 
ATOM     22  O   UNL     1      -6.458   2.029  -2.646  0.00  0.00    -0.274 OA
ATOM     23  C   UNL     1      -5.152   0.189  -1.817  0.00  0.00    +0.163 C 
ATOM     24  N   UNL     1      -4.011   1.059  -1.526  0.00  0.00    -0.302 N 
ATOM     25  C   UNL     1      -2.851   0.575  -0.834  0.00  0.00    +0.234 C 
ATOM     26  O   UNL     1      -2.515  -0.635  -0.976  0.00  0.00    -0.274 OA
ATOM     27  C   UNL     1      -2.094   1.444   0.150  0.00  0.00    +0.160 C 
ATOM     28  N   UNL     1      -0.784   0.846   0.416  0.00  0.00    -0.302 N 
ATOM     29  C   UNL     1      -0.417   0.326   1.709  0.00  0.00    +0.234 C 
ATOM     30  O   UNL     1      -0.931   0.804   2.756  0.00  0.00    -0.274 OA
ATOM     31  H   UNL     1      -2.145  -1.512   4.098  0.00  0.00    +0.149 HD
ATOM     32  H   UNL     1      -5.285  -3.413   1.475  0.00  0.00    +0.150 HD
ATOM     33  H   UNL     1      -8.435  -1.464   1.961  0.00  0.00    +0.150 HD
ATOM     34  H   UNL     1      -9.435   0.412   1.117  0.00  0.00    +0.150 HD
ATOM     35  H   UNL     1      -7.535  -0.252  -0.580  0.00  0.00    +0.150 HD
ATOM     36  H   UNL     1      -4.028   2.048  -1.865  0.00  0.00    +0.150 HD
ATOM     37  H   UNL     1      -0.160   0.665  -0.404  0.00  0.00    +0.150 HD
ENDROOT
BRANCH   1  40
ATOM     38  C   UNL     1       2.741   0.253   1.052  0.00  0.00    +0.234 C 
ATOM     39  O   UNL     1       2.971   0.731   2.198  0.00  0.00    -0.274 OA
ATOM     40  N   UNL     1       1.641  -0.644   0.850  0.00  0.00    -0.302 N 
ATOM     41  H   UNL     1       1.538  -1.096  -0.087  0.00  0.00    +0.150 HD
BRANCH  38  42
ATOM     42  C   UNL     1       3.664   0.561  -0.094  0.00  0.00    +0.160 C 
BRANCH  42  45
ATOM     43  C   UNL     1       5.037  -1.478  -0.712  0.00  0.00    +0.236 C 
ATOM     44  O   UNL     1       4.018  -2.099  -1.125  0.00  0.00    -0.274 OA
ATOM     45  N   UNL     1       4.873  -0.254   0.019  0.00  0.00    -0.302 N 
ATOM     46  H   UNL     1       5.599   0.024   0.715  0.00  0.00    +0.150 HD
BRANCH  43  47
ATOM     47  C   UNL     1       6.415  -2.070  -0.932  0.00  0.00    +0.187 C 
BRANCH  47  50
ATOM     48  C   UNL     1       8.598  -1.349   0.168  0.00  0.00    +0.234 C 
ATOM     49  O   UNL     1       8.615  -2.372   0.909  0.00  0.00    -0.274 OA
ATOM     50  N   UNL     1       7.457  -1.075  -0.656  0.00  0.00    -0.300 N 
ATOM     51  H   UNL     1       7.414  -0.158  -1.149  0.00  0.00    +0.150 HD
BRANCH  48  52
ATOM     52  C   UNL     1       9.775  -0.407   0.171  0.00  0.00    +0.160 C 
BRANCH  52  55
ATOM     53  C   UNL     1      11.486  -1.870  -0.989  0.00  0.00    +0.214 C 
ATOM     54  O   UNL     1      10.858  -1.781  -2.083  0.00  0.00    -0.276 OA
ATOM     55  N   UNL     1      11.023  -1.178   0.178  0.00  0.00    -0.304 N 
ATOM     56  H   UNL     1      11.543  -1.299   1.078  0.00  0.00    +0.149 HD
BRANCH  53  57
ATOM     57  C   UNL     1      12.783  -2.630  -0.949  0.00  0.00    +0.096 C 
BRANCH  57  58
ATOM     58  C   UNL     1      13.924  -1.861  -1.633  0.00  0.00    +0.009 C 
BRANCH  58  59
ATOM     59  C   UNL     1      14.219  -0.475  -1.029  0.00  0.00    +0.001 C 
BRANCH  59  60
ATOM     60  C   UNL     1      14.778  -0.551   0.403  0.00  0.00    +0.003 C 
BRANCH  60  61
ATOM     61  C   UNL     1      15.155   0.841   0.972  0.00  0.00    -0.014 C 
ATOM     62  C   UNL     1      16.470   1.346   0.361  0.00  0.00    +0.007 C 
BRANCH  61  64
ATOM     63  C   UNL     1      13.935   0.745   3.228  0.00  0.00    +0.004 C 
ATOM     64  C   UNL     1      15.288   0.802   2.512  0.00  0.00    -0.000 C 
ENDBRANCH  61  64
ENDBRANCH  60  61
ENDBRANCH  59  60
ENDBRANCH  58  59
ENDBRANCH  57  58
ENDBRANCH  53  57
ENDBRANCH  52  55
BRANCH  52  65
ATOM     65  C   UNL     1       9.735   0.539   1.391  0.00  0.00    +0.046 C 
BRANCH  65  66
ATOM     66  C   UNL     1       8.536   1.502   1.379  0.00  0.00    +0.080 C 
BRANCH  66  67
ATOM     67  N   UNL     1       8.514   2.301   0.154  0.00  0.00    -0.330 NA
ATOM     68  H   UNL     1       9.332   2.952   0.171  0.00  0.00    +0.118 HD
ATOM     69  H   UNL     1       7.652   2.896   0.176  0.00  0.00    +0.118 HD
ENDBRANCH  66  67
ENDBRANCH  65  66
ENDBRANCH  52  65
ENDBRANCH  48  52
ENDBRANCH  47  50
BRANCH  47  70
ATOM     70  C   UNL     1       6.603  -2.643  -2.361  0.00  0.00    +0.141 C 
ATOM     71  C   UNL     1       6.342  -1.602  -3.464  0.00  0.00    +0.040 C 
BRANCH  70  72
ATOM     72  O   UNL     1       5.762  -3.754  -2.539  0.00  0.00    -0.390 OA
ATOM     73  H   UNL     1       6.091  -4.240  -3.338  0.00  0.00    +0.210 HD
ENDBRANCH  70  72
ENDBRANCH  47  70
ENDBRANCH  43  47
ENDBRANCH  42  45
BRANCH  42  74
ATOM     74  C   UNL     1       4.020   2.058  -0.134  0.00  0.00    +0.046 C 
BRANCH  74  75
ATOM     75  C   UNL     1       4.763   2.427  -1.431  0.00  0.00    +0.080 C 
BRANCH  75  76
ATOM     76  N   UNL     1       5.059   3.857  -1.494  0.00  0.00    -0.330 NA
ATOM     77  H   UNL     1       4.159   4.388  -1.431  0.00  0.00    +0.118 HD
ATOM     78  H   UNL     1       5.642   4.116  -0.666  0.00  0.00    +0.118 HD
ENDBRANCH  75  76
ENDBRANCH  74  75
ENDBRANCH  42  74
ENDBRANCH  38  42
ENDBRANCH   1  40
BRANCH   7  79
ATOM     79  C   UNL     1      -5.231  -0.603   3.084  0.00  0.00    +0.141 C 
ATOM     80  C   UNL     1      -4.356   0.359   3.892  0.00  0.00    +0.040 C 
BRANCH  79  81
ATOM     81  O   UNL     1      -5.399  -0.098   1.786  0.00  0.00    -0.390 OA
ATOM     82  H   UNL     1      -6.269  -0.436   1.459  0.00  0.00    +0.210 HD
ENDBRANCH  79  81
ENDBRANCH   7  79
BRANCH  11  83
ATOM     83  C   UNL     1      -7.631  -4.348   0.651  0.00  0.00    +0.046 C 
BRANCH  83  84
ATOM     84  C   UNL     1      -7.165  -3.440  -0.507  0.00  0.00    +0.080 C 
BRANCH  84  85
ATOM     85  N   UNL     1      -8.292  -3.026  -1.339  0.00  0.00    -0.330 NA
ATOM     86  H   UNL     1      -7.922  -2.411  -2.097  0.00  0.00    +0.118 HD
ATOM     87  H   UNL     1      -8.674  -3.876  -1.816  0.00  0.00    +0.118 HD
ENDBRANCH  84  85
ENDBRANCH  83  84
ENDBRANCH  11  83
BRANCH  15  88
ATOM     88  C   UNL     1     -11.531  -0.718   2.334  0.00  0.00    +0.046 C 
BRANCH  88  89
ATOM     89  C   UNL     1     -12.675  -1.640   2.771  0.00  0.00    +0.080 C 
BRANCH  89  90
ATOM     90  N   UNL     1     -13.254  -1.152   4.019  0.00  0.00    -0.330 NA
ATOM     91  H   UNL     1     -12.571  -1.342   4.792  0.00  0.00    +0.118 HD
ATOM     92  H   UNL     1     -14.103  -1.726   4.223  0.00  0.00    +0.118 HD
ENDBRANCH  89  90
ENDBRANCH  88  89
ENDBRANCH  15  88
BRANCH  19  93
ATOM     93  C   UNL     1      -8.993   2.586  -0.771  0.00  0.00    +0.034 C 
BRANCH  93  94
ATOM     94  C   UNL     1     -10.021   3.542  -1.424  0.00  0.00    -0.015 C 
ATOM     95  C   UNL     1     -11.468   3.096  -1.180  0.00  0.00    +0.007 C 
ATOM     96  C   UNL     1      -9.822   4.965  -0.889  0.00  0.00    +0.007 C 
ENDBRANCH  93  94
ENDBRANCH  19  93
BRANCH  23  97
ATOM     97  C   UNL     1      -4.917  -0.657  -3.088  0.00  0.00    +0.067 C 
BRANCH  97  98
ATOM     98  C   UNL     1      -4.805   0.171  -4.343  0.00  0.00    -0.045 A 
ATOM     99  C   UNL     1      -5.914   0.327  -5.193  0.00  0.00    +0.004 A 
ATOM    100  C   UNL     1      -5.824   1.135  -6.330  0.00  0.00    +0.000 A 
ATOM    101  C   UNL     1      -4.630   1.797  -6.624  0.00  0.00    +0.000 A 
ATOM    102  C   UNL     1      -3.520   1.642  -5.789  0.00  0.00    +0.000 A 
ATOM    103  C   UNL     1      -3.604   0.831  -4.656  0.00  0.00    +0.004 A 
ENDBRANCH  97  98
ENDBRANCH  23  97
BRANCH  27 104
ATOM    104  C   UNL     1      -1.899   2.894  -0.354  0.00  0.00    +0.046 C 
BRANCH 104 105
ATOM    105  C   UNL     1      -3.031   3.843   0.089  0.00  0.00    +0.080 C 
BRANCH 105 106
ATOM    106  N   UNL     1      -2.784   4.335   1.443  0.00  0.00    -0.330 NA
ATOM    107  H   UNL     1      -3.000   3.567   2.116  0.00  0.00    +0.118 HD
ATOM    108  H   UNL     1      -3.482   5.092   1.632  0.00  0.00    +0.118 HD
ENDBRANCH 105 106
ENDBRANCH 104 105
ENDBRANCH  27 104
TORSDOF 36
