REMARK  Name = 
REMARK  7 active torsions:
REMARK  status: ('A' for Active; 'I' for Inactive)
REMARK    1  A    between atoms: C_1  and  N_2
REMARK    2  A    between atoms: C_3  and  C_4
REMARK    3  A    between atoms: C_4  and  S_5
REMARK    4  A    between atoms: S_5  and  C_6
REMARK    5  A    between atoms: C_6  and  C_7
REMARK    6  A    between atoms: C_16  and  S_22
REMARK    7  A    between atoms: S_22  and  N_23
REMARK                            x       y       z     vdW  Elec       q    Type
REMARK                         _______ _______ _______ _____ _____    ______ ____
ROOT
ATOM      1  C   UNL     1       1.300   0.752  -2.240  0.00  0.00    +0.134 C 
ATOM      2  N   UNL     1       1.150  -0.462  -1.419  0.00  0.00    -0.159 NA
ATOM      3  C   UNL     1       1.312  -0.205   0.032  0.00  0.00    +0.172 C 
ATOM      4  N   UNL     1       0.348   0.799   0.511  0.00  0.00    -0.325 N 
ATOM      5  C   UNL     1      -1.068   0.654   0.303  0.00  0.00    +0.056 A 
ATOM      6  C   UNL     1      -1.966   1.415   1.061  0.00  0.00    +0.047 A 
ATOM      7  C   UNL     1      -3.348   1.286   0.875  0.00  0.00    +0.069 A 
ATOM      8 CL   UNL     1      -4.410   2.262   1.884  0.00  0.00    -0.081 Cl
ATOM      9  C   UNL     1      -3.847   0.390  -0.094  0.00  0.00    +0.125 A 
ATOM     10  C   UNL     1      -2.945  -0.365  -0.858  0.00  0.00    +0.060 A 
ATOM     11  C   UNL     1      -1.565  -0.230  -0.668  0.00  0.00    +0.128 A 
ATOM     12  S   UNL     1      -0.440  -1.136  -1.663  0.00  0.00    +0.064 S 
ATOM     13  O   UNL     1      -0.838  -1.044  -3.111  0.00  0.00    -0.153 OA
ATOM     14  O   UNL     1      -0.442  -2.577  -1.235  0.00  0.00    -0.153 OA
ATOM     15  H   UNL     1       0.690   1.609   1.077  0.00  0.00    +0.148 HD
ENDROOT
BRANCH   9  16
ATOM     16  S   UNL     1      -5.584   0.187  -0.361  0.00  0.00    +0.057 S 
ATOM     17  O   UNL     1      -5.824  -0.577  -1.633  0.00  0.00    -0.153 OA
ATOM     18  O   UNL     1      -6.246   1.531  -0.481  0.00  0.00    -0.153 OA
BRANCH  16  19
ATOM     19  N   UNL     1      -6.275  -0.694   0.958  0.00  0.00    -0.203 NA
ATOM     20  H   UNL     1      -6.186  -0.098   1.810  0.00  0.00    +0.144 HD
ATOM     21  H   UNL     1      -7.297  -0.786   0.761  0.00  0.00    +0.144 HD
ENDBRANCH  16  19
ENDBRANCH   9  16
BRANCH   3  22
ATOM     22  C   UNL     1       2.751   0.194   0.402  0.00  0.00    +0.109 C 
BRANCH  22  23
ATOM     23  S   UNL     1       3.947  -1.042  -0.222  0.00  0.00    -0.149 S 
BRANCH  23  24
ATOM     24  C   UNL     1       5.436  -0.266   0.508  0.00  0.00    +0.182 C 
BRANCH  24  25
ATOM     25  C   UNL     1       5.828  -0.948   1.816  0.00  0.00    +0.399 C 
ATOM     26  F   UNL     1       6.066  -2.293   1.598  0.00  0.00    -0.170 F 
ATOM     27  F   UNL     1       4.819  -0.810   2.752  0.00  0.00    -0.170 F 
ATOM     28  F   UNL     1       6.980  -0.364   2.311  0.00  0.00    -0.170 F 
ENDBRANCH  24  25
ENDBRANCH  23  24
ENDBRANCH  22  23
ENDBRANCH   3  22
TORSDOF 6
