REMARK  Name = 
REMARK  2 active torsions:
REMARK  status: ('A' for Active; 'I' for Inactive)
REMARK    1  A    between atoms: N_1  and  C_2
REMARK    2  A    between atoms: N_10  and  C_11
REMARK                            x       y       z     vdW  Elec       q    Type
REMARK                         _______ _______ _______ _____ _____    ______ ____
ROOT
ATOM      1  C   UNL     1      -3.393   0.258  -0.733  0.00  0.00    +0.038 A 
ATOM      2  C   UNL     1      -4.391   0.025   0.236  0.00  0.00    +0.023 A 
ATOM      3  C   UNL     1      -4.059  -0.510   1.497  0.00  0.00    +0.003 A 
ATOM      4  C   UNL     1      -2.727  -0.821   1.810  0.00  0.00    +0.014 A 
ATOM      5  C   UNL     1      -1.753  -0.588   0.842  0.00  0.00    +0.051 A 
ATOM      6  C   UNL     1      -2.067  -0.062  -0.397  0.00  0.00    +0.070 A 
ATOM      7  C   UNL     1      -0.806   0.063  -1.137  0.00  0.00    +0.256 C 
ATOM      8  O   UNL     1      -0.672   0.554  -2.289  0.00  0.00    -0.269 OA
ATOM      9  N   UNL     1       0.286  -0.423  -0.351  0.00  0.00    -0.222 N 
ATOM     10  C   UNL     1      -0.313  -0.798   0.893  0.00  0.00    +0.255 C 
ATOM     11  O   UNL     1       0.328  -1.218   1.893  0.00  0.00    -0.270 OA
ENDROOT
BRANCH   9  12
ATOM     12  C   UNL     1       1.708  -0.171  -0.610  0.00  0.00    +0.171 C 
ATOM     13  C   UNL     1       2.160   1.099   0.135  0.00  0.00    +0.041 C 
ATOM     14  C   UNL     1       3.663   1.341  -0.033  0.00  0.00    +0.098 C 
ATOM     15  C   UNL     1       4.442   0.138   0.408  0.00  0.00    +0.219 C 
ATOM     16  O   UNL     1       5.614   0.276   0.848  0.00  0.00    -0.275 OA
ATOM     17  N   UNL     1       3.880  -1.173   0.279  0.00  0.00    -0.255 N 
ATOM     18  C   UNL     1       2.549  -1.360  -0.215  0.00  0.00    +0.240 C 
ATOM     19  O   UNL     1       2.109  -2.529  -0.387  0.00  0.00    -0.273 OA
ATOM     20  H   UNL     1       4.450  -2.006   0.549  0.00  0.00    +0.158 HD
ENDBRANCH   9  12
BRANCH   1  21
ATOM     21  N   UNL     1      -3.745   0.802  -2.010  0.00  0.00    -0.357 N 
ATOM     22  H   UNL     1      -3.036   0.970  -2.754  0.00  0.00    +0.142 HD
ATOM     23  H   UNL     1      -4.740   1.036  -2.227  0.00  0.00    +0.142 HD
ENDBRANCH   1  21
TORSDOF 2
