REMARK  Name = 
REMARK  9 active torsions:
REMARK  status: ('A' for Active; 'I' for Inactive)
REMARK    1  A    between atoms: C_1  and  N_2
REMARK    2  A    between atoms: N_5  and  C_6
REMARK    3  A    between atoms: C_6  and  C_7
REMARK    4  A    between atoms: C_10  and  N_11
REMARK    5  A    between atoms: C_12  and  C_14
REMARK    6  A    between atoms: C_16  and  C_17
REMARK    7  A    between atoms: C_18  and  C_19
REMARK    8  A    between atoms: C_28  and  C_29
REMARK    9  A    between atoms: C_33  and  C_34
REMARK                            x       y       z     vdW  Elec       q    Type
REMARK                         _______ _______ _______ _____ _____    ______ ____
ROOT
ATOM      1  N   UNL     1       0.205  -2.187  -0.112  0.00  0.00    -0.281 N 
ATOM      2  C   UNL     1       0.825  -2.753   1.056  0.00  0.00    +0.248 C 
ATOM      3  O   UNL     1       0.112  -3.312   1.933  0.00  0.00    -0.270 OA
ATOM      4  H   UNL     1       0.758  -2.161  -0.998  0.00  0.00    +0.155 HD
ENDROOT
BRANCH   2   5
ATOM      5  C   UNL     1       2.299  -2.733   1.218  0.00  0.00    +0.038 A 
ATOM      6  C   UNL     1       3.089  -1.806   0.516  0.00  0.00    +0.030 A 
ATOM      7  C   UNL     1       4.481  -1.784   0.677  0.00  0.00    +0.029 A 
ATOM      8  C   UNL     1       5.104  -2.699   1.553  0.00  0.00    -0.035 A 
ATOM      9  C   UNL     1       6.598  -2.698   1.748  0.00  0.00    +0.045 C 
ATOM     10  C   UNL     1       4.311  -3.610   2.267  0.00  0.00    +0.005 A 
ATOM     11  C   UNL     1       2.924  -3.626   2.103  0.00  0.00    +0.013 A 
BRANCH   7  12
ATOM     12  C   UNL     1       5.250  -0.806  -0.055  0.00  0.00    -0.059 C 
ATOM     13  C   UNL     1       5.891   0.012  -0.665  0.00  0.00    -0.040 C 
BRANCH  13  14
ATOM     14  C   UNL     1       6.654   0.990  -1.391  0.00  0.00    +0.136 A 
ATOM     15  C   UNL     1       6.714   1.152  -2.765  0.00  0.00    +0.150 A 
ATOM     16  N   UNL     1       7.545   2.183  -3.071  0.00  0.00    -0.233 NA
ATOM     17  C   UNL     1       7.965   2.617  -1.863  0.00  0.00    +0.155 A 
ATOM     18  C   UNL     1       8.841   3.667  -1.616  0.00  0.00    +0.050 A 
ATOM     19  C   UNL     1       9.144   3.947  -0.274  0.00  0.00    +0.025 A 
ATOM     20  C   UNL     1       8.566   3.174   0.753  0.00  0.00    +0.133 A 
ATOM     21  N   UNL     1       7.713   2.158   0.436  0.00  0.00    -0.172 NA
ATOM     22  N   UNL     1       7.446   1.919  -0.847  0.00  0.00    -0.205 N 
ENDBRANCH  13  14
ENDBRANCH   7  12
ENDBRANCH   2   5
BRANCH   1  26
ATOM     23  C   UNL     1      -3.888  -1.020  -0.341  0.00  0.00    -0.022 A 
ATOM     24  C   UNL     1      -3.178  -0.909   0.867  0.00  0.00    +0.007 A 
ATOM     25  C   UNL     1      -1.842  -1.294   0.951  0.00  0.00    +0.023 A 
ATOM     26  C   UNL     1      -1.181  -1.806  -0.172  0.00  0.00    +0.034 A 
ATOM     27  C   UNL     1      -1.870  -1.902  -1.387  0.00  0.00    +0.036 A 
ATOM     28  C   UNL     1      -3.224  -1.523  -1.496  0.00  0.00    +0.061 A 
BRANCH  28  29
ATOM     29  C   UNL     1      -3.942  -1.701  -2.824  0.00  0.00    +0.418 C 
ATOM     30  F   UNL     1      -3.086  -2.143  -3.818  0.00  0.00    -0.166 F 
ATOM     31  F   UNL     1      -4.483  -0.501  -3.241  0.00  0.00    -0.166 F 
ATOM     32  F   UNL     1      -4.951  -2.636  -2.686  0.00  0.00    -0.166 F 
ENDBRANCH  28  29
BRANCH  23  33
ATOM     33  C   UNL     1      -5.337  -0.576  -0.357  0.00  0.00    +0.120 C 
BRANCH  33  38
ATOM     34  C   UNL     1      -8.092   2.959   1.526  0.00  0.00    +0.105 C 
ATOM     35  N   UNL     1      -7.225   2.563   0.407  0.00  0.00    -0.303 NA
ATOM     36  C   UNL     1      -5.863   2.284   0.897  0.00  0.00    +0.099 C 
ATOM     37  C   UNL     1      -4.949   1.872  -0.268  0.00  0.00    +0.100 C 
ATOM     38  N   UNL     1      -5.492   0.730  -1.038  0.00  0.00    -0.296 NA
ATOM     39  C   UNL     1      -6.886   0.985  -1.454  0.00  0.00    +0.100 C 
ATOM     40  C   UNL     1      -7.778   1.377  -0.267  0.00  0.00    +0.099 C 
ENDBRANCH  33  38
ENDBRANCH  23  33
ENDBRANCH   1  26
TORSDOF 7
