REMARK  Name = 
REMARK  15 active torsions:
REMARK  status: ('A' for Active; 'I' for Inactive)
REMARK    1  A    between atoms: C_1  and  C_2
REMARK    2  A    between atoms: C_2  and  C_3
REMARK    3  A    between atoms: C_3  and  C_4
REMARK    4  A    between atoms: C_3  and  N_7
REMARK    5  A    between atoms: C_4  and  C_5
REMARK    6  A    between atoms: C_4  and  O_6
REMARK    7  A    between atoms: N_10  and  C_13
REMARK    8  A    between atoms: C_16  and  N_19
REMARK    9  A    between atoms: N_22  and  C_25
REMARK   10  A    between atoms: C_28  and  O_29
REMARK   11  A    between atoms: O_29  and  C_30
REMARK   12  A    between atoms: C_30  and  C_31
REMARK   13  A    between atoms: C_34  and  C_35
REMARK   14  A    between atoms: C_34  and  C_42
REMARK   15  A    between atoms: C_35  and  N_36
REMARK                            x       y       z     vdW  Elec       q    Type
REMARK                         _______ _______ _______ _____ _____    ______ ____
ROOT
ATOM      1  C   UNL     1      -1.448  -0.619   0.059  0.00  0.00    +0.030 A 
ATOM      2  C   UNL     1      -2.035  -1.725   0.713  0.00  0.00    +0.027 A 
ATOM      3  C   UNL     1      -3.399  -1.995   0.577  0.00  0.00    +0.047 A 
ATOM      4  C   UNL     1      -4.208  -1.180  -0.222  0.00  0.00    +0.121 A 
ATOM      5  C   UNL     1      -3.635  -0.073  -0.870  0.00  0.00    +0.047 A 
ATOM      6  C   UNL     1      -2.278   0.209  -0.721  0.00  0.00    +0.027 A 
ENDROOT
BRANCH   1  10
ATOM      7  N   UNL     1       2.817   0.027   0.371  0.00  0.00    -0.327 N 
ATOM      8  C   UNL     1       2.014  -0.109   1.595  0.00  0.00    +0.124 C 
ATOM      9  C   UNL     1       0.730  -0.896   1.325  0.00  0.00    +0.124 C 
ATOM     10  N   UNL     1      -0.028  -0.340   0.191  0.00  0.00    -0.327 N 
ATOM     11  C   UNL     1       0.661   0.545  -0.763  0.00  0.00    +0.124 C 
ATOM     12  C   UNL     1       2.133   0.150  -0.926  0.00  0.00    +0.124 C 
BRANCH   7  16
ATOM     13  C   UNL     1       7.095  -0.031   0.593  0.00  0.00    +0.053 A 
ATOM     14  C   UNL     1       6.329   0.273   1.727  0.00  0.00    +0.028 A 
ATOM     15  C   UNL     1       4.937   0.340   1.643  0.00  0.00    +0.025 A 
ATOM     16  C   UNL     1       4.269   0.046   0.434  0.00  0.00    +0.030 A 
ATOM     17  C   UNL     1       5.054  -0.251  -0.705  0.00  0.00    +0.025 A 
ATOM     18  C   UNL     1       6.450  -0.269  -0.626  0.00  0.00    +0.028 A 
BRANCH  13  22
ATOM     19  N   UNL     1      10.700  -0.156   0.286  0.00  0.00    -0.207 N 
ATOM     20  N   UNL     1      10.528  -0.811   1.431  0.00  0.00    -0.157 NA
ATOM     21  C   UNL     1       9.203  -0.815   1.680  0.00  0.00    +0.230 A 
ATOM     22  N   UNL     1       8.518  -0.167   0.705  0.00  0.00    -0.250 N 
ATOM     23  C   UNL     1       9.483   0.233  -0.149  0.00  0.00    +0.351 A 
ATOM     24  O   UNL     1       9.274   0.880  -1.208  0.00  0.00    -0.244 OA
BRANCH  19  25
ATOM     25  C   UNL     1      12.011   0.161  -0.295  0.00  0.00    +0.140 C 
BRANCH  25  27
ATOM     26  C   UNL     1      13.711   2.121  -0.250  0.00  0.00    +0.006 C 
ATOM     27  C   UNL     1      12.602   1.359   0.490  0.00  0.00    +0.026 C 
ENDBRANCH  25  27
BRANCH  25  28
ATOM     28  C   UNL     1      12.909  -1.113  -0.267  0.00  0.00    +0.136 C 
ATOM     29  C   UNL     1      14.226  -0.963  -1.045  0.00  0.00    +0.040 C 
BRANCH  28  30
ATOM     30  O   UNL     1      12.189  -2.210  -0.778  0.00  0.00    -0.390 OA
ATOM     31  H   UNL     1      11.967  -2.002  -1.723  0.00  0.00    +0.210 HD
ENDBRANCH  28  30
ENDBRANCH  25  28
ENDBRANCH  19  25
ENDBRANCH  13  22
ENDBRANCH   7  16
ENDBRANCH   1  10
BRANCH   4  32
ATOM     32  O   UNL     1      -5.567  -1.501  -0.353  0.00  0.00    -0.492 OA
BRANCH  32  33
ATOM     33  C   UNL     1      -6.442  -0.854  -1.271  0.00  0.00    +0.235 C 
BRANCH  33  34
ATOM     34  C   UNL     1      -7.842  -1.477  -1.201  0.00  0.00    +0.055 C 
ATOM     35  C   UNL     1      -8.769  -0.793  -2.196  0.00  0.00    +0.168 C 
ATOM     36  O   UNL     1      -9.449   0.246  -1.537  0.00  0.00    -0.366 OA
ATOM     37  C   UNL     1      -9.468  -0.017  -0.147  0.00  0.00    +0.117 C 
ATOM     38  C   UNL     1      -8.530  -1.229   0.130  0.00  0.00    +0.051 C 
BRANCH  37  39
ATOM     39  C   UNL     1     -10.925  -0.316   0.276  0.00  0.00    +0.021 A 
ATOM     40  C   UNL     1     -11.588  -1.489  -0.181  0.00  0.00    +0.132 A 
ATOM     41  F   UNL     1     -10.993  -2.382  -1.010  0.00  0.00    -0.205 F 
ATOM     42  C   UNL     1     -12.896  -1.781   0.226  0.00  0.00    +0.077 A 
ATOM     43  C   UNL     1     -13.581  -0.904   1.071  0.00  0.00    +0.126 A 
ATOM     44  F   UNL     1     -14.839  -1.199   1.486  0.00  0.00    -0.205 F 
ATOM     45  C   UNL     1     -12.966   0.270   1.498  0.00  0.00    +0.039 A 
ATOM     46  C   UNL     1     -11.666   0.575   1.097  0.00  0.00    +0.012 A 
ENDBRANCH  37  39
BRANCH  37  47
ATOM     47  C   UNL     1      -8.850   1.215   0.607  0.00  0.00    +0.185 C 
BRANCH  47  48
ATOM     48  N   UNL     1      -9.266   2.532   0.105  0.00  0.00    -0.249 N 
ATOM     49  C   UNL     1      -8.648   3.676   0.434  0.00  0.00    +0.219 A 
ATOM     50  N   UNL     1      -9.060   4.694  -0.349  0.00  0.00    -0.223 NA
ATOM     51  C   UNL     1      -9.956   4.092  -1.165  0.00  0.00    +0.244 A 
ATOM     52  N   UNL     1     -10.073   2.775  -0.920  0.00  0.00    -0.158 NA
ENDBRANCH  47  48
ENDBRANCH  37  47
ENDBRANCH  33  34
ENDBRANCH  32  33
ENDBRANCH   4  32
TORSDOF 13
