REMARK  Name = 
REMARK  11 active torsions:
REMARK  status: ('A' for Active; 'I' for Inactive)
REMARK    1  A    between atoms: C_1  and  C_2
REMARK    2  A    between atoms: C_2  and  C_3
REMARK    3  A    between atoms: C_2  and  N_4
REMARK    4  A    between atoms: N_4  and  C_5
REMARK    5  A    between atoms: C_5  and  C_6
REMARK    6  A    between atoms: C_6  and  O_7
REMARK    7  A    between atoms: C_6  and  C_8
REMARK    8  A    between atoms: C_8  and  O_9
REMARK    9  A    between atoms: O_9  and  C_10
REMARK   10  A    between atoms: C_13  and  N_14
REMARK   11  A    between atoms: C_15  and  C_16
REMARK                            x       y       z     vdW  Elec       q    Type
REMARK                         _______ _______ _______ _____ _____    ______ ____
ROOT
ATOM      1  O   UNL     1      -0.536   1.083   0.830  0.00  0.00    -0.489 OA
ENDROOT
BRANCH   1   2
ATOM      2  C   UNL     1       0.730   0.643   0.421  0.00  0.00    +0.121 A 
ATOM      3  C   UNL     1       1.051   0.718  -0.939  0.00  0.00    +0.047 A 
ATOM      4  C   UNL     1       2.299   0.289  -1.399  0.00  0.00    +0.027 A 
ATOM      5  C   UNL     1       3.255  -0.207  -0.501  0.00  0.00    +0.034 A 
ATOM      6  C   UNL     1       2.928  -0.301   0.863  0.00  0.00    +0.027 A 
ATOM      7  C   UNL     1       1.679   0.127   1.322  0.00  0.00    +0.047 A 
BRANCH   5   8
ATOM      8  N   UNL     1       4.524  -0.662  -1.004  0.00  0.00    -0.286 N 
ATOM      9  C   UNL     1       5.758  -0.574  -0.276  0.00  0.00    +0.214 C 
ATOM     10  C   UNL     1       6.981  -1.252  -0.801  0.00  0.00    +0.109 C 
ATOM     11  O   UNL     1       5.845   0.140   0.760  0.00  0.00    -0.276 OA
ATOM     12  H   UNL     1       4.567  -1.005  -1.990  0.00  0.00    +0.155 HD
ENDBRANCH   5   8
ENDBRANCH   1   2
BRANCH   1  13
ATOM     13  C   UNL     1      -1.026   1.011   2.167  0.00  0.00    +0.261 C 
BRANCH  13  14
ATOM     14  C   UNL     1      -2.481   1.507   2.245  0.00  0.00    +0.166 C 
BRANCH  14  15
ATOM     15  O   UNL     1      -2.582   2.872   1.921  0.00  0.00    -0.387 OA
ATOM     16  H   UNL     1      -2.188   3.006   1.020  0.00  0.00    +0.210 HD
ENDBRANCH  14  15
BRANCH  14  17
ATOM     17  C   UNL     1      -3.448   0.654   1.401  0.00  0.00    +0.115 C 
BRANCH  17  18
ATOM     18  N   UNL     1      -3.178   0.812  -0.039  0.00  0.00    -0.311 NA
ATOM     19  H   UNL     1      -3.681   1.667  -0.375  0.00  0.00    +0.122 HD
BRANCH  18  21
ATOM     20  C   UNL     1      -2.637  -1.514  -0.729  0.00  0.00    +0.023 C 
ATOM     21  C   UNL     1      -3.600  -0.329  -0.877  0.00  0.00    +0.048 C 
ATOM     22  C   UNL     1      -5.061  -0.745  -0.637  0.00  0.00    +0.023 C 
ENDBRANCH  18  21
ENDBRANCH  17  18
ENDBRANCH  14  17
ENDBRANCH  13  14
ENDBRANCH   1  13
TORSDOF 8
