REMARK  Name = 
REMARK  13 active torsions:
REMARK  status: ('A' for Active; 'I' for Inactive)
REMARK    1  A    between atoms: C_7  and  C_8
REMARK    2  A    between atoms: C_8  and  C_9
REMARK    3  A    between atoms: C_9  and  C_10
REMARK    4  A    between atoms: C_9  and  C_13
REMARK    5  A    between atoms: C_10  and  C_11
REMARK    6  A    between atoms: C_16  and  C_19
REMARK    7  A    between atoms: N_21  and  CA_22
REMARK    8  A    between atoms: CA_22  and  CB_23
REMARK    9  A    between atoms: CA_22  and  C_28
REMARK   10  A    between atoms: CB_23  and  CG_24
REMARK   11  A    between atoms: CG_24  and  CD_25
REMARK   12  A    between atoms: CD_25  and  OE1_26
REMARK   13  A    between atoms: C_28  and  O_29
REMARK                            x       y       z     vdW  Elec       q    Type
REMARK                         _______ _______ _______ _____ _____    ______ ____
ROOT
ATOM      1  C   UNK A   0       1.902  -0.022  -0.231  0.00  0.00    +0.037 C 
ENDROOT
BRANCH   1   2
ATOM      2  C   UNK A   0       0.413   0.103   0.057  0.00  0.00    -0.043 A 
ATOM      3  C   UNK A   0      -0.469  -0.962  -0.201  0.00  0.00    +0.005 A 
ATOM      4  C   UNK A   0      -1.834  -0.835   0.070  0.00  0.00    +0.013 A 
ATOM      5  C   UNK A   0      -2.348   0.359   0.605  0.00  0.00    +0.037 A 
ATOM      6  C   UNK A   0      -1.464   1.417   0.879  0.00  0.00    +0.013 A 
ATOM      7  C   UNK A   0      -0.100   1.292   0.604  0.00  0.00    +0.005 A 
BRANCH   5   8
ATOM      8  C   UNK A   0      -3.791   0.497   0.913  0.00  0.00    +0.245 C 
ATOM      9  O   UNK A   0      -4.155   1.294   1.822  0.00  0.00    -0.270 OA
ATOM     10  N   GLU A   1      -4.779  -0.250   0.183  0.00  0.00    -0.298 N 
ATOM     11  H   GLU A   1      -4.489  -0.778  -0.671  0.00  0.00    +0.150 HD
BRANCH  10  12
ATOM     12  CA  GLU A   1      -6.158  -0.394   0.659  0.00  0.00    +0.182 C 
BRANCH  12  13
ATOM     13  C   GLU A   1      -6.235  -1.556   1.604  0.00  0.00    +0.325 C 
ATOM     14  OXT GLU A   1      -6.762  -1.413   2.739  0.00  0.00    -0.249 OA
BRANCH  13  15
ATOM     15  O   GLU A   1      -5.736  -2.799   1.222  0.00  0.00    -0.479 OA
ATOM     16  H   GLU A   1      -5.779  -3.591   1.853  0.00  0.00    +0.295 HD
ENDBRANCH  13  15
ENDBRANCH  12  13
BRANCH  12  17
ATOM     17  CB  GLU A   1      -7.127  -0.609  -0.522  0.00  0.00    +0.045 C 
BRANCH  17  18
ATOM     18  CG  GLU A   1      -7.166   0.583  -1.492  0.00  0.00    +0.123 C 
BRANCH  18  19
ATOM     19  CD  GLU A   1      -7.791   1.790  -0.864  0.00  0.00    +0.305 C 
ATOM     20  OE2 GLU A   1      -7.066   2.687  -0.357  0.00  0.00    -0.251 OA
BRANCH  19  21
ATOM     21  OE1 GLU A   1      -9.177   1.896  -0.801  0.00  0.00    -0.481 OA
ATOM     22  HE1 GLU A   1      -9.616   2.697  -0.362  0.00  0.00    +0.295 HD
ENDBRANCH  19  21
ENDBRANCH  18  19
ENDBRANCH  17  18
ENDBRANCH  12  17
ENDBRANCH  10  12
ENDBRANCH   5   8
ENDBRANCH   1   2
BRANCH   1  23
ATOM     23  C   UNK A   0       2.524  -1.106   0.679  0.00  0.00    +0.066 C 
BRANCH  23  30
ATOM     24  N   UNK A   0      10.274  -0.093   0.562  0.00  0.00    -0.327 N 
ATOM     25  C   UNK A   0       8.851  -0.066   0.639  0.00  0.00    +0.216 A 
ATOM     26  N   UNK A   0       8.135  -1.194   0.383  0.00  0.00    -0.193 NA
ATOM     27  C   UNK A   0       6.780  -1.184   0.451  0.00  0.00    +0.185 A 
ATOM     28  N   UNK A   0       6.069  -2.312   0.192  0.00  0.00    -0.232 NA
ATOM     29  C   UNK A   0       4.711  -2.315   0.253  0.00  0.00    +0.136 A 
ATOM     30  C   UNK A   0       4.027  -1.135   0.590  0.00  0.00    +0.061 A 
ATOM     31  N   UNK A   0       4.744  -0.008   0.858  0.00  0.00    -0.243 NA
ATOM     32  C   UNK A   0       6.101  -0.002   0.790  0.00  0.00    +0.148 A 
ATOM     33  C   UNK A   0       6.854   1.150   1.052  0.00  0.00    +0.149 A 
ATOM     34  N   UNK A   0       6.225   2.384   1.405  0.00  0.00    -0.341 N 
ATOM     35  N   UNK A   0       8.211   1.090   0.969  0.00  0.00    -0.198 NA
ATOM     36  H   UNK A   0      10.831   0.772   0.743  0.00  0.00    +0.145 HD
ATOM     37  H   UNK A   0      10.774  -0.979   0.323  0.00  0.00    +0.145 HD
ATOM     38  H   UNK A   0       5.186   2.468   1.475  0.00  0.00    +0.144 HD
ATOM     39  H   UNK A   0       6.805   3.231   1.597  0.00  0.00    +0.144 HD
ENDBRANCH  23  30
ENDBRANCH   1  23
BRANCH   1  40
ATOM     40  C   UNK A   0       2.170  -0.308  -1.726  0.00  0.00    +0.097 C 
BRANCH  40  41
ATOM     41  C   UNK A   0       1.660   0.778  -2.576  0.00  0.00    -0.105 C 
ATOM     42  C   UNK A   0       1.240   1.672  -3.268  0.00  0.00    +0.004 C 
ENDBRANCH  40  41
ENDBRANCH   1  40
TORSDOF 13
