REMARK  Name = 
REMARK  3 active torsions:
REMARK  status: ('A' for Active; 'I' for Inactive)
REMARK    1  A    between atoms: C_1  and  N_2
REMARK    2  A    between atoms: C_3  and  C_4
REMARK    3  A    between atoms: N_5  and  O_6
REMARK                            x       y       z     vdW  Elec       q    Type
REMARK                         _______ _______ _______ _____ _____    ______ ____
ROOT
ATOM      1  C   UNL     1      -0.060   1.593   1.118  0.00  0.00    +0.149 C 
ATOM      2  N   UNL     1      -0.568   0.417   0.396  0.00  0.00    -0.349 N 
ATOM      3  C   UNL     1       0.234  -0.329  -0.449  0.00  0.00    +0.063 A 
ATOM      4  C   UNL     1      -0.326  -1.395  -1.173  0.00  0.00    +0.027 A 
ATOM      5  C   UNL     1      -1.667  -1.725  -1.003  0.00  0.00    +0.003 A 
ATOM      6  C   UNL     1      -2.449  -0.994  -0.119  0.00  0.00    +0.018 A 
ATOM      7  C   UNL     1      -1.883   0.075   0.575  0.00  0.00    +0.086 A 
ENDROOT
BRANCH   3   8
ATOM      8  C   UNL     1       1.681  -0.067  -0.655  0.00  0.00    +0.178 C 
ATOM      9  N   UNL     1       2.414   0.490   0.253  0.00  0.00    -0.094 NA
BRANCH   9  10
ATOM     10  O   UNL     1       3.762   0.672   0.051  0.00  0.00    -0.409 OA
ATOM     11  H   UNL     1       4.327   1.109   0.769  0.00  0.00    +0.328 HD
ENDBRANCH   9  10
ENDBRANCH   3   8
TORSDOF 2
