REMARK  Name = 
REMARK  4 active torsions:
REMARK  status: ('A' for Active; 'I' for Inactive)
REMARK    1  A    between atoms: C_1  and  C_2
REMARK    2  A    between atoms: C_2  and  C_3
REMARK    3  A    between atoms: C_3  and  N_4
REMARK    4  A    between atoms: N_4  and  C_5
REMARK                            x       y       z     vdW  Elec       q    Type
REMARK                         _______ _______ _______ _____ _____    ______ ____
ROOT
ATOM      1  C   UNL     1      -0.396  -0.013  -0.997  0.00  0.00    +0.059 C 
ATOM      2  C   UNL     1       0.417   1.099  -1.697  0.00  0.00    +0.025 C 
ATOM      3  C   UNL     1       1.653   1.527  -0.883  0.00  0.00    +0.058 C 
ATOM      4  C   UNL     1       2.417   0.337  -0.382  0.00  0.00    +0.054 A 
ATOM      5  C   UNL     1       1.838  -0.921  -0.267  0.00  0.00    +0.016 A 
ATOM      6  C   UNL     1       0.475  -1.278  -0.778  0.00  0.00    +0.063 C 
ATOM      7  S   UNL     1       2.970  -1.985   0.377  0.00  0.00    -0.057 S 
ATOM      8  C   UNL     1       4.133  -0.773   0.521  0.00  0.00    +0.156 A 
ATOM      9  N   UNL     1       5.441  -0.975   1.049  0.00  0.00    -0.338 N 
ATOM     10  N   UNL     1       3.692   0.425   0.078  0.00  0.00    -0.230 NA
ATOM     11  H   UNL     1       5.736  -1.920   1.379  0.00  0.00    +0.144 HD
ATOM     12  H   UNL     1       6.113  -0.178   1.110  0.00  0.00    +0.144 HD
ENDROOT
BRANCH   1  13
ATOM     13  N   UNL     1      -0.952   0.503   0.273  0.00  0.00    -0.313 NA
ATOM     14  H   UNL     1      -0.261   0.365   1.047  0.00  0.00    +0.122 HD
BRANCH  13  15
ATOM     15  C   UNL     1      -2.216  -0.150   0.646  0.00  0.00    +0.081 C 
BRANCH  15  17
ATOM     16  C   UNL     1      -4.729  -0.019   0.452  0.00  0.00    +0.005 C 
ATOM     17  C   UNL     1      -3.400   0.613   0.046  0.00  0.00    +0.012 C 
ENDBRANCH  15  17
ENDBRANCH  13  15
ENDBRANCH   1  13
TORSDOF 3
