REMARK  Name = 
REMARK  9 active torsions:
REMARK  status: ('A' for Active; 'I' for Inactive)
REMARK    1  A    between atoms: C_2  and  C_20
REMARK    2  A    between atoms: N_3  and  C_4
REMARK    3  A    between atoms: C_13  and  C_15
REMARK    4  A    between atoms: C_23  and  O_24
REMARK    5  A    between atoms: O_24  and  C_25
REMARK    6  A    between atoms: C_25  and  C_26
REMARK    7  A    between atoms: C_26  and  C_27
REMARK    8  A    between atoms: C_27  and  C_28
REMARK    9  A    between atoms: C_28  and  C_29
REMARK                            x       y       z     vdW  Elec       q    Type
REMARK                         _______ _______ _______ _____ _____    ______ ____
ROOT
ATOM      1  O   UNL     1      -2.727   0.815   1.844  0.00  0.00    -0.270 OA
ATOM      2  C   UNL     1      -1.968   0.296   0.980  0.00  0.00    +0.248 C 
ATOM      3  N   UNL     1      -2.371  -0.911   0.311  0.00  0.00    -0.281 N 
ATOM      4  H   UNL     1      -1.623  -1.551  -0.042  0.00  0.00    +0.155 HD
ENDROOT
BRANCH   3   5
ATOM      5  C   UNL     1      -3.731  -1.372   0.248  0.00  0.00    +0.037 A 
ATOM      6  C   UNL     1      -4.805  -0.468   0.158  0.00  0.00    +0.070 A 
ATOM      7  C   UNL     1      -6.120  -0.937   0.070  0.00  0.00    +0.141 A 
ATOM      8  C   UNL     1      -6.377  -2.326   0.068  0.00  0.00    +0.064 A 
ATOM      9  C   UNL     1      -5.301  -3.228   0.141  0.00  0.00    +0.017 A 
ATOM     10  C   UNL     1      -3.990  -2.750   0.222  0.00  0.00    +0.024 A 
ATOM     11  C   UNL     1      -7.711  -2.755  -0.021  0.00  0.00    +0.193 A 
ATOM     12  O   UNL     1      -8.001  -3.983  -0.025  0.00  0.00    -0.287 OA
ATOM     13  C   UNL     1      -8.730  -1.806  -0.108  0.00  0.00    +0.101 A 
ATOM     14  C   UNL     1      -8.399  -0.443  -0.107  0.00  0.00    +0.180 A 
ATOM     15  O   UNL     1      -7.124  -0.068  -0.017  0.00  0.00    -0.451 OA
BRANCH  14  16
ATOM     16  C   UNL     1      -9.441   0.589  -0.214  0.00  0.00    +0.239 A 
ATOM     17  N   UNL     1      -9.193   1.912  -0.212  0.00  0.00    -0.130 NA
ATOM     18  N   UNL     1     -10.387   2.461  -0.348  0.00  0.00    -0.176 N 
ATOM     19  N   UNL     1     -11.323   1.533  -0.432  0.00  0.00    -0.048 NA
ATOM     20  N   UNL     1     -10.759   0.339  -0.351  0.00  0.00    -0.105 NA
ATOM     21  H   UNL     1     -10.566   3.489  -0.391  0.00  0.00    +0.214 HD
ENDBRANCH  14  16
ENDBRANCH   3   5
BRANCH   2  22
ATOM     22  C   UNL     1      -0.648   0.910   0.705  0.00  0.00    +0.037 A 
ATOM     23  C   UNL     1      -0.066   1.784   1.640  0.00  0.00    +0.016 A 
ATOM     24  C   UNL     1       1.179   2.365   1.389  0.00  0.00    +0.046 A 
ATOM     25  C   UNL     1       1.867   2.092   0.202  0.00  0.00    +0.121 A 
ATOM     26  C   UNL     1       1.279   1.237  -0.748  0.00  0.00    +0.046 A 
ATOM     27  C   UNL     1       0.035   0.651  -0.497  0.00  0.00    +0.016 A 
BRANCH  25  28
ATOM     28  O   UNL     1       3.120   2.696   0.010  0.00  0.00    -0.492 OA
BRANCH  28  29
ATOM     29  C   UNL     1       4.029   2.410  -1.054  0.00  0.00    +0.229 C 
BRANCH  29  30
ATOM     30  C   UNL     1       4.685   1.034  -0.882  0.00  0.00    +0.041 C 
BRANCH  30  31
ATOM     31  C   UNL     1       5.424   0.916   0.460  0.00  0.00    +0.008 C 
BRANCH  31  32
ATOM     32  C   UNL     1       6.076  -0.462   0.644  0.00  0.00    +0.035 C 
BRANCH  32  33
ATOM     33  C   UNL     1       7.263  -0.649  -0.266  0.00  0.00    -0.047 A 
ATOM     34  C   UNL     1       8.507  -0.091   0.073  0.00  0.00    +0.003 A 
ATOM     35  C   UNL     1       9.604  -0.242  -0.781  0.00  0.00    +0.000 A 
ATOM     36  C   UNL     1       9.465  -0.945  -1.981  0.00  0.00    +0.000 A 
ATOM     37  C   UNL     1       8.230  -1.498  -2.329  0.00  0.00    +0.000 A 
ATOM     38  C   UNL     1       7.131  -1.351  -1.477  0.00  0.00    +0.003 A 
ENDBRANCH  32  33
ENDBRANCH  31  32
ENDBRANCH  30  31
ENDBRANCH  29  30
ENDBRANCH  28  29
ENDBRANCH  25  28
ENDBRANCH   2  22
TORSDOF 9
