REMARK  Name = 
REMARK  7 active torsions:
REMARK  status: ('A' for Active; 'I' for Inactive)
REMARK    1  A    between atoms: C_1  and  C_2
REMARK    2  A    between atoms: C_2  and  O_4
REMARK    3  A    between atoms: O_4  and  C_5
REMARK    4  A    between atoms: N_11  and  C_13
REMARK    5  A    between atoms: C_13  and  C_14
REMARK    6  A    between atoms: C_13  and  C_19
REMARK    7  A    between atoms: C_14  and  C_16
REMARK                            x       y       z     vdW  Elec       q    Type
REMARK                         _______ _______ _______ _____ _____    ______ ____
ROOT
ATOM      1  C   UNL     1       3.349   0.342   1.597  0.00  0.00    +0.170 A 
ATOM      2  C   UNL     1       2.845  -0.005   0.342  0.00  0.00    +0.059 A 
ATOM      3  C   UNL     1       1.722   0.755  -0.009  0.00  0.00    -0.020 A 
ATOM      4  C   UNL     1       1.373   1.701   0.938  0.00  0.00    -0.001 A 
ATOM      5  C   UNL     1       0.162   2.569   0.832  0.00  0.00    +0.058 C 
ATOM      6  C   UNL     1      -0.389   2.541  -0.610  0.00  0.00    +0.091 C 
ATOM      7  N   UNL     1      -0.409   1.172  -1.198  0.00  0.00    -0.285 NA
ATOM      8  C   UNL     1       0.979   0.646  -1.311  0.00  0.00    +0.121 C 
ATOM      9  S   UNL     1       2.407   1.574   2.256  0.00  0.00    -0.056 S 
ENDROOT
BRANCH   1  10
ATOM     10  O   UNL     1       4.435  -0.235   2.270  0.00  0.00    -0.419 OA
BRANCH  10  12
ATOM     11  C   UNL     1       6.387  -1.758   2.564  0.00  0.00    +0.136 C 
ATOM     12  C   UNL     1       5.420  -1.041   1.685  0.00  0.00    +0.310 C 
ATOM     13  O   UNL     1       5.558  -1.103   0.434  0.00  0.00    -0.251 OA
ENDBRANCH  10  12
ENDBRANCH   1  10
BRANCH   7  14
ATOM     14  C   UNL     1      -1.322   0.224  -0.493  0.00  0.00    +0.157 C 
BRANCH  14  15
ATOM     15  C   UNL     1      -1.443  -1.097  -1.237  0.00  0.00    +0.012 A 
ATOM     16  C   UNL     1      -1.373  -2.306  -0.521  0.00  0.00    +0.008 A 
ATOM     17  C   UNL     1      -1.499  -3.531  -1.183  0.00  0.00    +0.000 A 
ATOM     18  C   UNL     1      -1.705  -3.563  -2.563  0.00  0.00    +0.003 A 
ATOM     19  C   UNL     1      -1.790  -2.370  -3.285  0.00  0.00    +0.039 A 
ATOM     20  C   UNL     1      -1.665  -1.141  -2.631  0.00  0.00    +0.128 A 
ATOM     21  F   UNL     1      -1.753   0.002  -3.359  0.00  0.00    -0.205 F 
ENDBRANCH  14  15
BRANCH  14  22
ATOM     22  C   UNL     1      -2.719   0.788  -0.328  0.00  0.00    +0.158 C 
ATOM     23  O   UNL     1      -3.312   1.239  -1.298  0.00  0.00    -0.295 OA
BRANCH  22  24
ATOM     24  C   UNL     1      -3.379   0.751   1.031  0.00  0.00    +0.057 C 
ATOM     25  C   UNL     1      -3.569   2.124   1.657  0.00  0.00    +0.012 C 
ATOM     26  C   UNL     1      -4.775   1.351   1.151  0.00  0.00    +0.012 C 
ENDBRANCH  22  24
ENDBRANCH  14  22
ENDBRANCH   7  14
TORSDOF 6
