REMARK  Name = 
REMARK  18 active torsions:
REMARK  status: ('A' for Active; 'I' for Inactive)
REMARK    1  A    between atoms: C_2  and  O_24
REMARK    2  A    between atoms: C_4  and  O_5
REMARK    3  A    between atoms: C_10  and  C_11
REMARK    4  A    between atoms: C_12  and  C_13
REMARK    5  A    between atoms: C_13  and  C_14
REMARK    6  A    between atoms: C_14  and  C_15
REMARK    7  A    between atoms: C_15  and  O_16
REMARK    8  A    between atoms: C_15  and  C_17
REMARK    9  A    between atoms: C_17  and  C_18
REMARK   10  A    between atoms: C_18  and  O_19
REMARK   11  A    between atoms: C_18  and  C_20
REMARK   12  A    between atoms: C_20  and  C_21
REMARK   13  A    between atoms: C_21  and  O_22
REMARK   14  A    between atoms: O_24  and  C_25
REMARK   15  A    between atoms: C_25  and  C_27
REMARK   16  A    between atoms: C_27  and  C_28
REMARK   17  A    between atoms: C_27  and  C_29
REMARK   18  A    between atoms: C_29  and  C_30
REMARK                            x       y       z     vdW  Elec       q    Type
REMARK                         _______ _______ _______ _____ _____    ______ ____
ROOT
ATOM      1  C   UNL     1      -0.949   1.757  -0.243  0.00  0.00    +0.063 C 
ATOM      2  C   UNL     1      -2.489   1.564  -0.065  0.00  0.00    +0.187 C 
ATOM      3  C   UNL     1      -3.063   2.584   0.918  0.00  0.00    +0.080 C 
ATOM      4  C   UNL     1      -2.830   4.008   0.386  0.00  0.00    +0.141 C 
ATOM      5  C   UNL     1      -1.377   4.233   0.072  0.00  0.00    +0.008 C 
ATOM      6  C   UNL     1      -0.527   3.228  -0.198  0.00  0.00    -0.042 C 
ATOM      7  C   UNL     1       0.919   3.496  -0.157  0.00  0.00    -0.000 C 
ATOM      8  C   UNL     1       1.671   2.736   0.641  0.00  0.00    -0.023 C 
ATOM      9  C   UNL     1       0.988   1.719   1.526  0.00  0.00    +0.012 C 
ATOM     10  C   UNL     1       1.989   0.900   2.353  0.00  0.00    +0.012 C 
ATOM     11  C   UNL     1      -0.045   0.869   0.713  0.00  0.00    +0.007 C 
ENDROOT
BRANCH   4  12
ATOM     12  O   UNL     1      -3.588   4.238  -0.772  0.00  0.00    -0.388 OA
ATOM     13  H   UNL     1      -4.530   4.347  -0.479  0.00  0.00    +0.210 HD
ENDBRANCH   4  12
BRANCH  11  14
ATOM     14  C   UNL     1       0.593  -0.330  -0.052  0.00  0.00    +0.007 C 
BRANCH  14  15
ATOM     15  C   UNL     1       1.687   0.046  -1.078  0.00  0.00    +0.032 C 
BRANCH  15  16
ATOM     16  C   UNL     1       2.005  -1.108  -2.053  0.00  0.00    +0.117 C 
BRANCH  16  17
ATOM     17  O   UNL     1       2.940  -0.683  -3.011  0.00  0.00    -0.392 OA
ATOM     18  H   UNL     1       2.461  -0.088  -3.643  0.00  0.00    +0.210 HD
ENDBRANCH  16  17
BRANCH  16  19
ATOM     19  C   UNL     1       2.509  -2.405  -1.374  0.00  0.00    +0.063 C 
BRANCH  19  20
ATOM     20  C   UNL     1       3.691  -2.258  -0.382  0.00  0.00    +0.128 C 
BRANCH  20  21
ATOM     21  O   UNL     1       3.945  -3.501   0.226  0.00  0.00    -0.391 OA
ATOM     22  H   UNL     1       4.236  -4.129  -0.485  0.00  0.00    +0.210 HD
ENDBRANCH  20  21
BRANCH  20  23
ATOM     23  C   UNL     1       4.971  -1.708  -1.042  0.00  0.00    +0.151 C 
BRANCH  23  24
ATOM     24  C   UNL     1       6.119  -1.701  -0.078  0.00  0.00    +0.307 C 
ATOM     25  O   UNL     1       7.109  -2.457  -0.267  0.00  0.00    -0.251 OA
BRANCH  24  26
ATOM     26  O   UNL     1       6.087  -0.861   1.032  0.00  0.00    -0.481 OA
ATOM     27  H   UNL     1       6.859  -0.836   1.690  0.00  0.00    +0.295 HD
ENDBRANCH  24  26
ENDBRANCH  23  24
ENDBRANCH  20  23
ENDBRANCH  19  20
ENDBRANCH  16  19
ENDBRANCH  15  16
ENDBRANCH  14  15
ENDBRANCH  11  14
BRANCH   2  28
ATOM     28  O   UNL     1      -2.828   0.245   0.364  0.00  0.00    -0.460 OA
BRANCH  28  29
ATOM     29  C   UNL     1      -2.864  -0.862  -0.493  0.00  0.00    +0.310 C 
ATOM     30  O   UNL     1      -2.703  -0.714  -1.736  0.00  0.00    -0.251 OA
BRANCH  29  31
ATOM     31  C   UNL     1      -3.124  -2.238   0.059  0.00  0.00    +0.094 C 
ATOM     32  C   UNL     1      -2.542  -2.398   1.471  0.00  0.00    +0.019 C 
BRANCH  31  33
ATOM     33  C   UNL     1      -4.622  -2.605  -0.012  0.00  0.00    +0.011 C 
ATOM     34  C   UNL     1      -5.537  -1.689   0.806  0.00  0.00    +0.004 C 
ENDBRANCH  31  33
ENDBRANCH  29  31
ENDBRANCH  28  29
ENDBRANCH   2  28
TORSDOF 15
