REMARK  Name = 
REMARK  5 active torsions:
REMARK  status: ('A' for Active; 'I' for Inactive)
REMARK    1  A    between atoms: C_1  and  O_2
REMARK    2  A    between atoms: O_2  and  C_3
REMARK    3  A    between atoms: C_4  and  O_5
REMARK    4  A    between atoms: O_5  and  C_6
REMARK    5  A    between atoms: C_22  and  C_24
REMARK                            x       y       z     vdW  Elec       q    Type
REMARK                         _______ _______ _______ _____ _____    ______ ____
ROOT
ATOM      1  C   UNL     1      -4.623  -0.468   1.025  0.00  0.00    +0.164 A 
ATOM      2  C   UNL     1      -5.069   0.681   0.357  0.00  0.00    +0.162 A 
ATOM      3  C   UNL     1      -4.175   1.420  -0.443  0.00  0.00    +0.062 A 
ATOM      4  C   UNL     1      -2.831   1.016  -0.582  0.00  0.00    +0.044 A 
ATOM      5  C   UNL     1      -1.879   1.709  -1.370  0.00  0.00    +0.129 A 
ATOM      6  N   UNL     1      -2.194   2.897  -2.108  0.00  0.00    -0.343 N 
ATOM      7  N   UNL     1      -0.606   1.237  -1.437  0.00  0.00    -0.199 NA
ATOM      8  C   UNL     1      -0.210   0.119  -0.774  0.00  0.00    +0.220 A 
ATOM      9  N   UNL     1      -1.110  -0.558  -0.016  0.00  0.00    -0.214 NA
ATOM     10  C   UNL     1      -2.397  -0.144   0.097  0.00  0.00    +0.082 A 
ATOM     11  C   UNL     1      -3.284  -0.874   0.891  0.00  0.00    +0.078 A 
ATOM     12  N   UNL     1       1.150  -0.352  -0.879  0.00  0.00    -0.297 N 
ATOM     13  C   UNL     1       1.491  -1.686  -0.360  0.00  0.00    +0.127 C 
ATOM     14  C   UNL     1       2.878  -2.141  -0.825  0.00  0.00    +0.127 C 
ATOM     15  N   UNL     1       3.871  -1.082  -0.608  0.00  0.00    -0.292 N 
ATOM     16  C   UNL     1       3.520   0.323  -0.872  0.00  0.00    +0.127 C 
ATOM     17  C   UNL     1       2.167   0.445  -1.580  0.00  0.00    +0.127 C 
ATOM     18  C   UNL     1       5.254  -1.449  -0.452  0.00  0.00    +0.282 C 
ATOM     19  O   UNL     1       5.705  -2.450  -1.071  0.00  0.00    -0.267 OA
ATOM     20  H   UNL     1      -3.140   3.329  -2.141  0.00  0.00    +0.144 HD
ATOM     21  H   UNL     1      -1.444   3.367  -2.663  0.00  0.00    +0.144 HD
ENDROOT
BRANCH  18  22
ATOM     22  C   UNL     1       6.169  -0.681   0.408  0.00  0.00    +0.189 A 
ATOM     23  C   UNL     1       5.819   0.131   1.470  0.00  0.00    +0.054 A 
ATOM     24  C   UNL     1       7.007   0.608   1.981  0.00  0.00    +0.042 A 
ATOM     25  C   UNL     1       8.006   0.057   1.207  0.00  0.00    +0.196 A 
ATOM     26  O   UNL     1       7.476  -0.709   0.281  0.00  0.00    -0.458 OA
ENDBRANCH  18  22
BRANCH   1  28
ATOM     27  C   UNL     1      -5.233  -2.358   2.549  0.00  0.00    +0.277 C 
ATOM     28  O   UNL     1      -5.542  -1.179   1.814  0.00  0.00    -0.491 OA
ENDBRANCH   1  28
BRANCH   2  29
ATOM     29  O   UNL     1      -6.414   1.056   0.515  0.00  0.00    -0.491 OA
ATOM     30  C   UNL     1      -7.016   2.192  -0.098  0.00  0.00    +0.277 C 
ENDBRANCH   2  29
TORSDOF 3
