REMARK  Name = 
REMARK  1 active torsions:
REMARK  status: ('A' for Active; 'I' for Inactive)
REMARK    1  A    between atoms: C_2  and  C_3
REMARK                            x       y       z     vdW  Elec       q    Type
REMARK                         _______ _______ _______ _____ _____    ______ ____
ROOT
ATOM      1  O   UNL     1       0.837  -0.862  -2.644  0.00  0.00    -0.275 OA
ATOM      2  C   UNL     1       1.259  -0.377  -1.560  0.00  0.00    +0.219 C 
ATOM      3  N   UNL     1       0.325   0.264  -0.675  0.00  0.00    -0.290 N 
ATOM      4  C   UNL     1      -0.771  -0.530  -0.112  0.00  0.00    +0.135 C 
ATOM      5  C   UNL     1      -2.079   0.257  -0.227  0.00  0.00    +0.124 C 
ATOM      6  N   UNL     1      -1.918   1.544   0.471  0.00  0.00    -0.291 N 
ATOM      7  C   UNL     1      -3.016   2.100   1.272  0.00  0.00    +0.113 C 
ATOM      8  C   UNL     1      -3.526   1.040   2.240  0.00  0.00    +0.054 C 
ATOM      9  C   UNL     1      -3.923  -0.198   1.489  0.00  0.00    -0.041 A 
ATOM     10  C   UNL     1      -4.960  -1.009   1.978  0.00  0.00    +0.004 A 
ATOM     11  C   UNL     1      -5.344  -2.158   1.284  0.00  0.00    +0.000 A 
ATOM     12  C   UNL     1      -4.695  -2.508   0.099  0.00  0.00    +0.000 A 
ATOM     13  C   UNL     1      -3.651  -1.718  -0.388  0.00  0.00    +0.006 A 
ATOM     14  C   UNL     1      -3.240  -0.568   0.309  0.00  0.00    -0.022 A 
ATOM     15  C   UNL     1      -0.717   2.308   0.248  0.00  0.00    +0.233 C 
ATOM     16  O   UNL     1      -0.695   3.544   0.493  0.00  0.00    -0.274 OA
ATOM     17  C   UNL     1       0.546   1.647  -0.235  0.00  0.00    +0.203 C 
ENDROOT
BRANCH   2  18
ATOM     18  C   UNL     1       2.728  -0.519  -1.221  0.00  0.00    +0.075 C 
ATOM     19  C   UNL     1       2.952  -0.981   0.243  0.00  0.00    +0.013 C 
ATOM     20  C   UNL     1       4.331  -0.574   0.802  0.00  0.00    +0.001 C 
ATOM     21  C   UNL     1       5.396  -0.514  -0.299  0.00  0.00    +0.000 C 
ATOM     22  C   UNL     1       5.042   0.522  -1.387  0.00  0.00    +0.001 C 
ATOM     23  C   UNL     1       3.525   0.756  -1.543  0.00  0.00    +0.013 C 
ENDBRANCH   2  18
TORSDOF 1
