REMARK  Name = 
REMARK  3 active torsions:
REMARK  status: ('A' for Active; 'I' for Inactive)
REMARK    1  A    between atoms: N_8  and  C_9
REMARK    2  A    between atoms: C_9  and  C_10
REMARK    3  A    between atoms: C_17  and  C_18
REMARK                            x       y       z     vdW  Elec       q    Type
REMARK                         _______ _______ _______ _____ _____    ______ ____
ROOT
ATOM      1 CL   UNL     1      -1.239  -3.935  -2.896  0.00  0.00    -0.084 Cl
ATOM      2  C   UNL     1      -0.479  -2.578  -2.083  0.00  0.00    +0.042 A 
ATOM      3  C   UNL     1      -1.250  -1.492  -1.668  0.00  0.00    +0.032 A 
ATOM      4  C   UNL     1      -0.658  -0.396  -1.012  0.00  0.00    +0.023 A 
ATOM      5  C   UNL     1       0.744  -0.399  -0.786  0.00  0.00    +0.046 A 
ATOM      6  C   UNL     1       1.503  -1.502  -1.217  0.00  0.00    +0.025 A 
ATOM      7  C   UNL     1       0.896  -2.582  -1.857  0.00  0.00    +0.022 A 
ATOM      8  N   UNL     1       1.405   0.698  -0.116  0.00  0.00    -0.269 N 
ATOM      9  C   UNL     1       1.189   2.057  -0.548  0.00  0.00    +0.241 C 
ATOM     10  O   UNL     1       1.941   2.983  -0.137  0.00  0.00    -0.273 OA
ATOM     11  C   UNL     1       0.047   2.394  -1.452  0.00  0.00    +0.238 C 
ATOM     12  N   UNL     1      -1.196   1.973  -0.818  0.00  0.00    -0.273 NA
ATOM     13  C   UNL     1      -1.531   0.736  -0.582  0.00  0.00    +0.075 C 
ENDROOT
BRANCH  13  14
ATOM     14  C   UNL     1      -2.830   0.471   0.091  0.00  0.00    +0.001 A 
ATOM     15  C   UNL     1      -3.002  -0.670   0.899  0.00  0.00    +0.010 A 
ATOM     16  C   UNL     1      -4.223  -0.908   1.537  0.00  0.00    +0.001 A 
ATOM     17  C   UNL     1      -5.282  -0.011   1.383  0.00  0.00    +0.000 A 
ATOM     18  C   UNL     1      -5.121   1.130   0.593  0.00  0.00    +0.001 A 
ATOM     19  C   UNL     1      -3.902   1.373  -0.047  0.00  0.00    +0.010 A 
ENDBRANCH  13  14
BRANCH   8  20
ATOM     20  C   UNL     1       2.326   0.428   0.998  0.00  0.00    +0.117 C 
BRANCH  20  21
ATOM     21  C   UNL     1       3.786   0.513   0.527  0.00  0.00    +0.007 C 
ATOM     22  C   UNL     1       4.800   0.359   1.652  0.00  0.00    +0.005 C 
ATOM     23  C   UNL     1       4.620  -0.757   0.640  0.00  0.00    +0.005 C 
ENDBRANCH  20  21
ENDBRANCH   8  20
TORSDOF 3
