REMARK  Name = 
REMARK  6 active torsions:
REMARK  status: ('A' for Active; 'I' for Inactive)
REMARK    1  A    between atoms: C_4  and  O_5
REMARK    2  A    between atoms: C_4  and  C_6
REMARK    3  A    between atoms: C_6  and  C_8
REMARK    4  A    between atoms: C_8  and  O_9
REMARK    5  A    between atoms: C_10  and  C_11
REMARK    6  A    between atoms: C_25  and  C_26
REMARK                            x       y       z     vdW  Elec       q    Type
REMARK                         _______ _______ _______ _____ _____    ______ ____
ROOT
ATOM      1  C   UNL     1      -0.918  -0.803  -0.106  0.00  0.00    +0.002 C 
ATOM      2  C   UNL     1      -2.015  -1.369  -1.001  0.00  0.00    +0.008 C 
ATOM      3  C   UNL     1      -3.333  -0.919  -0.345  0.00  0.00    +0.043 C 
ATOM      4  C   UNL     1      -2.955  -0.041   0.888  0.00  0.00    +0.132 C 
ATOM      5  C   UNL     1      -1.532   0.473   0.507  0.00  0.00    +0.013 C 
ATOM      6  C   UNL     1      -1.630   1.653  -0.519  0.00  0.00    +0.015 C 
ATOM      7  C   UNL     1      -0.632   0.912   1.688  0.00  0.00    +0.084 C 
ATOM      8  C   UNL     1       0.791   1.080   1.197  0.00  0.00    +0.138 C 
ATOM      9  O   UNL     1       1.385   2.114   1.457  0.00  0.00    -0.297 OA
ATOM     10  C   UNL     1       1.451  -0.062   0.408  0.00  0.00    +0.072 C 
ATOM     11  C   UNL     1       0.484  -0.567  -0.719  0.00  0.00    +0.004 C 
ATOM     12  C   UNL     1       1.037  -1.858  -1.348  0.00  0.00    +0.009 C 
ATOM     13  C   UNL     1       2.413  -1.614  -1.963  0.00  0.00    +0.032 C 
ATOM     14  C   UNL     1       3.357  -1.038  -0.935  0.00  0.00    -0.056 C 
ATOM     15  C   UNL     1       4.603  -1.532  -0.850  0.00  0.00    +0.051 C 
ATOM     16  C   UNL     1       5.540  -1.032   0.156  0.00  0.00    +0.179 C 
ATOM     17  O   UNL     1       6.723  -1.461   0.192  0.00  0.00    -0.288 OA
ATOM     18  C   UNL     1       5.076  -0.066   1.148  0.00  0.00    +0.047 C 
ATOM     19  C   UNL     1       3.848   0.448   1.066  0.00  0.00    -0.012 C 
ATOM     20  C   UNL     1       2.913   0.195  -0.121  0.00  0.00    +0.017 C 
ATOM     21  C   UNL     1       2.997   1.426  -1.054  0.00  0.00    +0.021 C 
ENDROOT
BRANCH   4  22
ATOM     22  O   UNL     1      -2.859  -0.872   2.024  0.00  0.00    -0.380 OA
ATOM     23  H   UNL     1      -3.767  -1.226   2.221  0.00  0.00    +0.211 HD
ENDBRANCH   4  22
BRANCH   4  24
ATOM     24  C   UNL     1      -3.943   1.086   1.208  0.00  0.00    +0.190 C 
ATOM     25  O   UNL     1      -3.650   1.894   2.076  0.00  0.00    -0.292 OA
BRANCH  24  26
ATOM     26  C   UNL     1      -5.276   1.233   0.525  0.00  0.00    +0.233 C 
BRANCH  26  27
ATOM     27  O   UNL     1      -5.114   1.950  -0.665  0.00  0.00    -0.387 OA
ATOM     28  H   UNL     1      -6.013   1.995  -1.084  0.00  0.00    +0.210 HD
ENDBRANCH  26  27
ENDBRANCH  24  26
ENDBRANCH   4  24
TORSDOF 4
