REMARK  Name = 
REMARK  14 active torsions:
REMARK  status: ('A' for Active; 'I' for Inactive)
REMARK    1  A    between atoms: C_1  and  C_2
REMARK    2  A    between atoms: C_2  and  O_3
REMARK    3  A    between atoms: O_3  and  C_4
REMARK    4  A    between atoms: C_4  and  O_6
REMARK    5  A    between atoms: O_6  and  C_7
REMARK    6  A    between atoms: C_7  and  C_28
REMARK    7  A    between atoms: C_20  and  C_21
REMARK    8  A    between atoms: C_23  and  O_24
REMARK    9  A    between atoms: C_26  and  C_27
REMARK   10  A    between atoms: C_28  and  C_30
REMARK   11  A    between atoms: C_30  and  O_31
REMARK   12  A    between atoms: O_31  and  C_32
REMARK   13  A    between atoms: C_32  and  C_34
REMARK   14  A    between atoms: C_34  and  C_35
REMARK                            x       y       z     vdW  Elec       q    Type
REMARK                         _______ _______ _______ _____ _____    ______ ____
ROOT
ATOM      1  C   UNL     1      -1.456   0.788   0.924  0.00  0.00    +0.183 C 
ATOM      2  C   UNL     1      -1.007   1.835   1.998  0.00  0.00    +0.057 C 
ATOM      3  C   UNL     1       0.526   1.949   1.901  0.00  0.00    +0.009 C 
ATOM      4  C   UNL     1       0.896   1.099   0.693  0.00  0.00    +0.003 C 
ATOM      5  C   UNL     1       2.384   0.639   0.552  0.00  0.00    -0.000 C 
ATOM      6  C   UNL     1       3.179   1.826  -0.067  0.00  0.00    +0.008 C 
ATOM      7  C   UNL     1       4.616   1.488  -0.427  0.00  0.00    +0.032 C 
ATOM      8  C   UNL     1       4.627   0.272  -1.309  0.00  0.00    -0.056 C 
ATOM      9  C   UNL     1       5.182   0.333  -2.530  0.00  0.00    +0.051 C 
ATOM     10  C   UNL     1       5.195  -0.839  -3.407  0.00  0.00    +0.179 C 
ATOM     11  O   UNL     1       5.715  -0.768  -4.552  0.00  0.00    -0.288 OA
ATOM     12  C   UNL     1       4.602  -2.093  -2.945  0.00  0.00    +0.047 C 
ATOM     13  C   UNL     1       4.046  -2.172  -1.735  0.00  0.00    -0.012 C 
ATOM     14  C   UNL     1       3.985  -1.000  -0.759  0.00  0.00    +0.013 C 
ATOM     15  C   UNL     1       4.811  -1.467   0.466  0.00  0.00    +0.020 C 
ATOM     16  C   UNL     1       2.499  -0.692  -0.304  0.00  0.00    +0.035 C 
ATOM     17  C   UNL     1       1.369  -0.702  -1.390  0.00  0.00    +0.120 C 
ATOM     18  C   UNL     1      -0.050  -0.740  -0.724  0.00  0.00    +0.043 C 
ATOM     19  C   UNL     1      -0.140  -0.026   0.671  0.00  0.00    +0.020 C 
ATOM     20  C   UNL     1       0.087  -1.044   1.849  0.00  0.00    +0.016 C 
ENDROOT
BRANCH  17  21
ATOM     21  O   UNL     1       1.471  -1.807  -2.250  0.00  0.00    -0.391 OA
ATOM     22  H   UNL     1       0.921  -1.600  -3.051  0.00  0.00    +0.210 HD
ENDBRANCH  17  21
BRANCH   1  23
ATOM     23  C   UNL     1      -2.629  -0.099   1.364  0.00  0.00    +0.214 C 
ATOM     24  O   UNL     1      -2.959  -0.149   2.541  0.00  0.00    -0.289 OA
BRANCH  23  25
ATOM     25  C   UNL     1      -3.415  -0.896   0.348  0.00  0.00    +0.310 C 
BRANCH  25  26
ATOM     26  O   UNL     1      -4.262  -1.859   0.978  0.00  0.00    -0.457 OA
BRANCH  26  27
ATOM     27  C   UNL     1      -3.792  -3.054   1.533  0.00  0.00    +0.307 C 
ATOM     28  O   UNL     1      -2.572  -3.364   1.452  0.00  0.00    -0.251 OA
BRANCH  27  29
ATOM     29  C   UNL     1      -4.744  -3.955   2.256  0.00  0.00    +0.117 C 
ATOM     30  C   UNL     1      -5.169  -3.333   3.583  0.00  0.00    +0.015 C 
ENDBRANCH  27  29
ENDBRANCH  26  27
ENDBRANCH  25  26
ENDBRANCH  23  25
ENDBRANCH   1  23
BRANCH   1  31
ATOM     31  O   UNL     1      -1.822   1.494  -0.278  0.00  0.00    -0.419 OA
BRANCH  31  32
ATOM     32  C   UNL     1      -2.919   2.356  -0.410  0.00  0.00    +0.511 C 
ATOM     33  O   UNL     1      -3.704   2.555   0.558  0.00  0.00    -0.203 OA
BRANCH  32  34
ATOM     34  O   UNL     1      -3.139   2.983  -1.639  0.00  0.00    -0.434 OA
BRANCH  34  36
ATOM     35  C   UNL     1      -4.203   4.357  -3.304  0.00  0.00    +0.048 C 
ATOM     36  C   UNL     1      -4.255   3.833  -1.878  0.00  0.00    +0.232 C 
ENDBRANCH  34  36
ENDBRANCH  32  34
ENDBRANCH  31  32
ENDBRANCH   1  31
TORSDOF 10
