REMARK  Name = 
REMARK  7 active torsions:
REMARK  status: ('A' for Active; 'I' for Inactive)
REMARK    1  A    between atoms: C_4  and  O_5
REMARK    2  A    between atoms: C_4  and  C_6
REMARK    3  A    between atoms: C_6  and  C_8
REMARK    4  A    between atoms: C_8  and  O_9
REMARK    5  A    between atoms: C_10  and  C_11
REMARK    6  A    between atoms: C_13  and  O_14
REMARK    7  A    between atoms: C_25  and  C_26
REMARK                            x       y       z     vdW  Elec       q    Type
REMARK                         _______ _______ _______ _____ _____    ______ ____
ROOT
ATOM      1  C   UNL     1      -0.908  -0.841  -0.120  0.00  0.00    +0.002 C 
ATOM      2  C   UNL     1      -1.824  -1.865  -0.777  0.00  0.00    +0.008 C 
ATOM      3  C   UNL     1      -3.227  -1.238  -0.692  0.00  0.00    +0.043 C 
ATOM      4  C   UNL     1      -3.061   0.197  -0.111  0.00  0.00    +0.131 C 
ATOM      5  C   UNL     1      -1.558   0.515  -0.438  0.00  0.00    +0.009 C 
ATOM      6  C   UNL     1      -1.420   0.917  -1.951  0.00  0.00    +0.015 C 
ATOM      7  C   UNL     1      -0.878   1.581   0.463  0.00  0.00    +0.041 C 
ATOM      8  C   UNL     1       0.665   1.623   0.279  0.00  0.00    +0.120 C 
ATOM      9  C   UNL     1       1.332   0.209   0.428  0.00  0.00    +0.035 C 
ATOM     10  C   UNL     1       0.609  -0.895  -0.426  0.00  0.00    -0.000 C 
ATOM     11  C   UNL     1       1.169  -2.294  -0.087  0.00  0.00    +0.008 C 
ATOM     12  C   UNL     1       2.676  -2.361  -0.319  0.00  0.00    +0.032 C 
ATOM     13  C   UNL     1       3.362  -1.280   0.479  0.00  0.00    -0.056 C 
ATOM     14  C   UNL     1       4.364  -1.609   1.311  0.00  0.00    +0.051 C 
ATOM     15  C   UNL     1       5.013  -0.597   2.143  0.00  0.00    +0.179 C 
ATOM     16  O   UNL     1       5.970  -0.913   2.897  0.00  0.00    -0.288 OA
ATOM     17  C   UNL     1       4.529   0.781   2.106  0.00  0.00    +0.047 C 
ATOM     18  C   UNL     1       3.544   1.132   1.278  0.00  0.00    -0.012 C 
ATOM     19  C   UNL     1       2.906   0.174   0.269  0.00  0.00    +0.013 C 
ATOM     20  C   UNL     1       3.392   0.617  -1.133  0.00  0.00    +0.020 C 
ENDROOT
BRANCH   4  21
ATOM     21  O   UNL     1      -3.263   0.114   1.285  0.00  0.00    -0.380 OA
ATOM     22  H   UNL     1      -3.346   1.035   1.647  0.00  0.00    +0.211 HD
ENDBRANCH   4  21
BRANCH   4  23
ATOM     23  C   UNL     1      -4.077   1.186  -0.698  0.00  0.00    +0.190 C 
ATOM     24  O   UNL     1      -3.778   2.367  -0.803  0.00  0.00    -0.292 OA
BRANCH  23  25
ATOM     25  C   UNL     1      -5.493   0.776  -1.027  0.00  0.00    +0.233 C 
BRANCH  25  26
ATOM     26  O   UNL     1      -6.407   1.666  -0.445  0.00  0.00    -0.387 OA
ATOM     27  H   UNL     1      -6.419   1.465   0.529  0.00  0.00    +0.210 HD
ENDBRANCH  25  26
ENDBRANCH  23  25
ENDBRANCH   4  23
BRANCH   8  28
ATOM     28  O   UNL     1       0.991   2.213  -0.951  0.00  0.00    -0.391 OA
ATOM     29  H   UNL     1       0.806   3.185  -0.867  0.00  0.00    +0.210 HD
ENDBRANCH   8  28
TORSDOF 5
