REMARK  Name = 
REMARK  9 active torsions:
REMARK  status: ('A' for Active; 'I' for Inactive)
REMARK    1  A    between atoms: C_1  and  C_2
REMARK    2  A    between atoms: C_2  and  C_3
REMARK    3  A    between atoms: C_2  and  C_4
REMARK    4  A    between atoms: C_4  and  C_5
REMARK    5  A    between atoms: C_5  and  C_6
REMARK    6  A    between atoms: C_5  and  C_8
REMARK    7  A    between atoms: C_6  and  N_7
REMARK    8  A    between atoms: C_8  and  C_9
REMARK    9  A    between atoms: C_9  and  O_10
REMARK                            x       y       z     vdW  Elec       q    Type
REMARK                         _______ _______ _______ _____ _____    ______ ____
ROOT
ATOM      1  C   UNL     1      -1.079  -0.128   0.801  0.00  0.00    +0.013 C 
ENDROOT
BRANCH   1   2
ATOM      2  C   UNL     1       0.451  -0.073   1.128  0.00  0.00    +0.008 C 
BRANCH   2   4
ATOM      3  C   UNL     1       2.848  -0.709   0.641  0.00  0.00    +0.007 C 
ATOM      4  C   UNL     1       1.470  -0.448   0.013  0.00  0.00    -0.017 C 
ATOM      5  C   UNL     1       1.606   0.642  -1.058  0.00  0.00    +0.007 C 
ENDBRANCH   2   4
ENDBRANCH   1   2
BRANCH   1   6
ATOM      6  C   UNL     1      -1.495  -1.081  -0.342  0.00  0.00    +0.081 C 
BRANCH   6   7
ATOM      7  N   UNL     1      -1.145  -2.462  -0.019  0.00  0.00    -0.330 NA
ATOM      8  H   UNL     1      -1.369  -3.051  -0.852  0.00  0.00    +0.118 HD
ATOM      9  H   UNL     1      -1.771  -2.788   0.753  0.00  0.00    +0.118 HD
ENDBRANCH   6   7
ENDBRANCH   1   6
BRANCH   1  10
ATOM     10  C   UNL     1      -1.738   1.268   0.681  0.00  0.00    +0.125 C 
BRANCH  10  11
ATOM     11  C   UNL     1      -1.325   2.046  -0.528  0.00  0.00    +0.305 C 
ATOM     12  O   UNL     1      -0.494   2.988  -0.420  0.00  0.00    -0.251 OA
BRANCH  11  13
ATOM     13  O   UNL     1      -1.871   1.741  -1.771  0.00  0.00    -0.481 OA
ATOM     14  H   UNL     1      -1.601   2.260  -2.599  0.00  0.00    +0.295 HD
ENDBRANCH  11  13
ENDBRANCH  10  11
ENDBRANCH   1  10
TORSDOF 7
