REMARK  Name = 
REMARK  8 active torsions:
REMARK  status: ('A' for Active; 'I' for Inactive)
REMARK    1  A    between atoms: C_1  and  C_2
REMARK    2  A    between atoms: C_2  and  C_3
REMARK    3  A    between atoms: C_3  and  N_4
REMARK    4  A    between atoms: N_4  and  C_5
REMARK    5  A    between atoms: C_5  and  C_6
REMARK    6  A    between atoms: C_5  and  C_7
REMARK    7  A    between atoms: N_9  and  C_10
REMARK    8  A    between atoms: C_15  and  C_16
REMARK                            x       y       z     vdW  Elec       q    Type
REMARK                         _______ _______ _______ _____ _____    ______ ____
ROOT
ATOM      1  C   UNL     1       0.295  -1.097   0.937  0.00  0.00    +0.234 C 
ATOM      2  O   UNL     1       1.007  -1.964   1.513  0.00  0.00    -0.274 OA
ATOM      3  N   UNL     1       0.908  -0.036   0.185  0.00  0.00    -0.284 N 
ATOM      4  H   UNL     1       0.311   0.775  -0.094  0.00  0.00    +0.155 HD
ENDROOT
BRANCH   3   5
ATOM      5  C   UNL     1       2.310   0.002  -0.135  0.00  0.00    +0.036 A 
ATOM      6  C   UNL     1       2.970  -1.165  -0.559  0.00  0.00    +0.023 A 
ATOM      7  C   UNL     1       4.322  -1.130  -0.908  0.00  0.00    +0.002 A 
ATOM      8  C   UNL     1       5.028   0.072  -0.849  0.00  0.00    +0.000 A 
ATOM      9  C   UNL     1       4.385   1.242  -0.443  0.00  0.00    +0.005 A 
ATOM     10  C   UNL     1       3.027   1.221  -0.078  0.00  0.00    -0.029 A 
ATOM     11  C   UNL     1       2.357   2.497   0.354  0.00  0.00    +0.045 C 
ENDBRANCH   3   5
BRANCH   1  12
ATOM     12  C   UNL     1      -1.202  -1.141   1.109  0.00  0.00    +0.138 C 
ATOM     13  C   UNL     1      -1.618  -0.069   2.126  0.00  0.00    +0.034 C 
BRANCH  12  14
ATOM     14  N   UNL     1      -1.862  -0.921  -0.193  0.00  0.00    -0.306 NA
ATOM     15  H   UNL     1      -1.421  -1.562  -0.895  0.00  0.00    +0.123 HD
BRANCH  14  16
ATOM     16  C   UNL     1      -3.307  -1.217  -0.168  0.00  0.00    +0.081 C 
BRANCH  16  18
ATOM     17  C   UNL     1      -3.874   0.669  -1.767  0.00  0.00    +0.005 C 
ATOM     18  C   UNL     1      -4.115   0.066  -0.384  0.00  0.00    +0.012 C 
ENDBRANCH  16  18
ENDBRANCH  14  16
ENDBRANCH  12  14
ENDBRANCH   1  12
TORSDOF 5
