REMARK  Name = 
REMARK  3 active torsions:
REMARK  status: ('A' for Active; 'I' for Inactive)
REMARK    1  A    between atoms: C_1  and  C_2
REMARK    2  A    between atoms: C_2  and  C_3
REMARK    3  A    between atoms: C_3  and  C_11
REMARK                            x       y       z     vdW  Elec       q    Type
REMARK                         _______ _______ _______ _____ _____    ______ ____
ROOT
ATOM      1  C   UNL     1      -0.447   0.165   0.155  0.00  0.00    +0.147 C 
ATOM      2  C   UNL     1      -0.953  -0.482   1.436  0.00  0.00    +0.234 C 
ATOM      3  O   UNL     1      -0.217  -0.512   2.461  0.00  0.00    -0.274 OA
ATOM      4  N   UNL     1      -2.282  -1.009   1.521  0.00  0.00    -0.299 N 
ATOM      5  C   UNL     1      -3.251  -0.780   0.459  0.00  0.00    +0.212 C 
ATOM      6  N   UNL     1      -2.594  -0.851  -0.839  0.00  0.00    -0.299 N 
ATOM      7  C   UNL     1      -1.271  -0.338  -1.028  0.00  0.00    +0.234 C 
ATOM      8  O   UNL     1      -0.803  -0.274  -2.198  0.00  0.00    -0.274 OA
ATOM      9  H   UNL     1      -2.598  -1.464   2.407  0.00  0.00    +0.150 HD
ATOM     10  H   UNL     1      -3.135  -1.197  -1.663  0.00  0.00    +0.150 HD
ENDROOT
BRANCH   1  11
ATOM     11  C   UNL     1       1.034  -0.241  -0.016  0.00  0.00    -0.024 A 
ATOM     12  C   UNL     1       2.102   0.588   0.402  0.00  0.00    +0.005 A 
ATOM     13  C   UNL     1       3.428   0.158   0.292  0.00  0.00    +0.000 A 
ATOM     14  C   UNL     1       3.716  -1.114  -0.201  0.00  0.00    +0.000 A 
ATOM     15  C   UNL     1       2.679  -1.967  -0.571  0.00  0.00    +0.000 A 
ATOM     16  C   UNL     1       1.351  -1.544  -0.466  0.00  0.00    +0.005 A 
ENDBRANCH   1  11
BRANCH   1  18
ATOM     17  C   UNL     1      -0.262   2.524  -0.936  0.00  0.00    +0.006 C 
ATOM     18  C   UNL     1      -0.684   1.701   0.288  0.00  0.00    +0.027 C 
ENDBRANCH   1  18
TORSDOF 2
