REMARK  Name = 
REMARK  9 active torsions:
REMARK  status: ('A' for Active; 'I' for Inactive)
REMARK    1  A    between atoms: C_1  and  O_2
REMARK    2  A    between atoms: O_2  and  C_3
REMARK    3  A    between atoms: C_5  and  N_6
REMARK    4  A    between atoms: N_6  and  C_7
REMARK    5  A    between atoms: C_7  and  C_8
REMARK    6  A    between atoms: C_7  and  C_9
REMARK    7  A    between atoms: C_9  and  C_10
REMARK    8  A    between atoms: C_10  and  C_11
REMARK    9  A    between atoms: C_11  and  N_12
REMARK                            x       y       z     vdW  Elec       q    Type
REMARK                         _______ _______ _______ _____ _____    ______ ____
ROOT
ATOM      1  C   UNL     1      -3.141  -1.023   0.267  0.00  0.00    +0.123 A 
ATOM      2  C   UNL     1      -1.753  -0.795   0.203  0.00  0.00    +0.070 A 
ATOM      3  C   UNL     1      -1.220   0.501   0.365  0.00  0.00    +0.057 A 
ATOM      4  C   UNL     1      -2.107   1.574   0.599  0.00  0.00    +0.092 A 
ATOM      5  N   UNL     1      -1.634   2.842   0.761  0.00  0.00    -0.253 NA
ATOM      6  C   UNL     1      -2.459   3.899   0.986  0.00  0.00    +0.111 A 
ATOM      7  C   UNL     1      -3.839   3.708   1.058  0.00  0.00    +0.020 A 
ATOM      8  C   UNL     1      -4.362   2.425   0.897  0.00  0.00    +0.011 A 
ATOM      9  C   UNL     1      -3.501   1.343   0.665  0.00  0.00    +0.006 A 
ATOM     10  C   UNL     1      -4.004   0.049   0.498  0.00  0.00    +0.055 A 
ENDROOT
BRANCH   1  12
ATOM     11  C   UNL     1      -2.954  -3.486  -0.141  0.00  0.00    +0.277 C 
ATOM     12  O   UNL     1      -3.702  -2.300   0.105  0.00  0.00    -0.495 OA
ENDBRANCH   1  12
BRANCH   3  13
ATOM     13  N   UNL     1       0.207   0.746   0.305  0.00  0.00    -0.340 N 
ATOM     14  H   UNL     1       0.549   1.709   0.524  0.00  0.00    +0.146 HD
BRANCH  13  15
ATOM     15  C   UNL     1       1.219  -0.261  -0.050  0.00  0.00    +0.067 C 
ATOM     16  C   UNL     1       1.171  -0.525  -1.562  0.00  0.00    +0.028 C 
BRANCH  15  17
ATOM     17  C   UNL     1       2.618   0.226   0.393  0.00  0.00    +0.023 C 
BRANCH  17  18
ATOM     18  C   UNL     1       3.695  -0.864   0.281  0.00  0.00    +0.017 C 
BRANCH  18  19
ATOM     19  C   UNL     1       5.026  -0.385   0.869  0.00  0.00    +0.078 C 
BRANCH  19  20
ATOM     20  N   UNL     1       6.031  -1.438   0.761  0.00  0.00    -0.330 NA
ATOM     21  H   UNL     1       6.896  -1.101   1.243  0.00  0.00    +0.118 HD
ATOM     22  H   UNL     1       6.280  -1.549  -0.249  0.00  0.00    +0.118 HD
ENDBRANCH  19  20
ENDBRANCH  18  19
ENDBRANCH  17  18
ENDBRANCH  15  17
ENDBRANCH  13  15
ENDBRANCH   3  13
TORSDOF 7
