REMARK  Name = 
REMARK  10 active torsions:
REMARK  status: ('A' for Active; 'I' for Inactive)
REMARK    1  A    between atoms: C_1  and  C_2
REMARK    2  A    between atoms: C_2  and  C_3
REMARK    3  A    between atoms: C_3  and  N_4
REMARK    4  A    between atoms: N_4  and  C_5
REMARK    5  A    between atoms: N_4  and  S_8
REMARK    6  A    between atoms: C_5  and  C_6
REMARK    7  A    between atoms: C_6  and  C_7
REMARK    8  A    between atoms: S_8  and  C_11
REMARK    9  A    between atoms: C_14  and  C_17
REMARK   10  A    between atoms: C_17  and  O_18
REMARK                            x       y       z     vdW  Elec       q    Type
REMARK                         _______ _______ _______ _____ _____    ______ ____
ROOT
ATOM      1  S   UNL     1      -0.157   1.521  -0.176  0.00  0.00    +0.061 S 
ATOM      2  O   UNL     1      -0.838   2.096   1.035  0.00  0.00    -0.153 OA
ATOM      3  O   UNL     1       0.240   2.652  -1.084  0.00  0.00    -0.153 OA
ENDROOT
BRANCH   1   4
ATOM      4  C   UNL     1       1.298   0.665   0.326  0.00  0.00    +0.106 A 
ATOM      5  C   UNL     1       2.326   0.434  -0.597  0.00  0.00    +0.029 A 
ATOM      6  C   UNL     1       3.468  -0.276  -0.217  0.00  0.00    +0.017 A 
ATOM      7  C   UNL     1       3.597  -0.770   1.092  0.00  0.00    +0.059 A 
ATOM      8  C   UNL     1       2.559  -0.540   2.013  0.00  0.00    +0.017 A 
ATOM      9  C   UNL     1       1.418   0.171   1.631  0.00  0.00    +0.029 A 
BRANCH   7  10
ATOM     10  C   UNL     1       4.805  -1.526   1.490  0.00  0.00    +0.337 C 
ATOM     11  O   UNL     1       4.918  -1.979   2.661  0.00  0.00    -0.245 OA
BRANCH  10  12
ATOM     12  O   UNL     1       5.831  -1.743   0.574  0.00  0.00    -0.477 OA
ATOM     13  H   UNL     1       6.662  -2.259   0.836  0.00  0.00    +0.295 HD
ENDBRANCH  10  12
ENDBRANCH   7  10
ENDBRANCH   1   4
BRANCH   1  14
ATOM     14  N   UNL     1      -1.222   0.420  -1.023  0.00  0.00    -0.177 NA
BRANCH  14  15
ATOM     15  C   UNL     1      -1.700  -0.680  -0.158  0.00  0.00    +0.109 C 
BRANCH  15  17
ATOM     16  C   UNL     1      -1.329  -3.100   0.456  0.00  0.00    +0.005 C 
ATOM     17  C   UNL     1      -0.899  -1.951  -0.450  0.00  0.00    +0.014 C 
ENDBRANCH  15  17
ENDBRANCH  14  15
BRANCH  14  18
ATOM     18  C   UNL     1      -2.304   1.125  -1.741  0.00  0.00    +0.109 C 
BRANCH  18  19
ATOM     19  C   UNL     1      -3.348   1.802  -0.817  0.00  0.00    +0.014 C 
ATOM     20  C   UNL     1      -3.314   3.326  -0.924  0.00  0.00    +0.005 C 
ENDBRANCH  18  19
ENDBRANCH  14  18
ENDBRANCH   1  14
TORSDOF 8
