REMARK  Name = 
REMARK  24 active torsions:
REMARK  status: ('A' for Active; 'I' for Inactive)
REMARK    1  A    between atoms: C_1  and  C_2
REMARK    2  A    between atoms: C_2  and  C_3
REMARK    3  A    between atoms: C_2  and  S_4
REMARK    4  A    between atoms: C_2  and  S_20
REMARK    5  A    between atoms: S_4  and  C_5
REMARK    6  A    between atoms: C_7  and  C_16
REMARK    7  A    between atoms: C_8  and  O_9
REMARK    8  A    between atoms: C_10  and  C_12
REMARK    9  A    between atoms: C_12  and  C_13
REMARK   10  A    between atoms: C_12  and  C_14
REMARK   11  A    between atoms: C_12  and  C_15
REMARK   12  A    between atoms: C_16  and  C_17
REMARK   13  A    between atoms: C_16  and  C_18
REMARK   14  A    between atoms: C_16  and  C_19
REMARK   15  A    between atoms: S_20  and  C_21
REMARK   16  A    between atoms: C_23  and  C_32
REMARK   17  A    between atoms: C_24  and  O_25
REMARK   18  A    between atoms: C_26  and  C_28
REMARK   19  A    between atoms: C_28  and  C_29
REMARK   20  A    between atoms: C_28  and  C_30
REMARK   21  A    between atoms: C_28  and  C_31
REMARK   22  A    between atoms: C_32  and  C_33
REMARK   23  A    between atoms: C_32  and  C_34
REMARK   24  A    between atoms: C_32  and  C_35
REMARK                            x       y       z     vdW  Elec       q    Type
REMARK                         _______ _______ _______ _____ _____    ______ ____
ROOT
ATOM      1  C   UNL     1      -0.038  -1.085   1.930  0.00  0.00    +0.035 C 
ATOM      2  C   UNL     1       0.041  -2.225   0.897  0.00  0.00    +0.066 C 
ATOM      3  C   UNL     1       1.163  -3.198   1.289  0.00  0.00    +0.035 C 
ENDROOT
BRANCH   2   4
ATOM      4  S   UNL     1      -1.527  -3.198   0.904  0.00  0.00    -0.108 S 
BRANCH   4   5
ATOM      5  C   UNL     1      -2.670  -1.890   0.427  0.00  0.00    +0.010 A 
ATOM      6  C   UNL     1      -2.972  -1.689  -0.914  0.00  0.00    +0.022 A 
ATOM      7  C   UNL     1      -3.852  -0.666  -1.330  0.00  0.00    +0.001 A 
ATOM      8  C   UNL     1      -4.574   0.029  -0.306  0.00  0.00    +0.124 A 
ATOM      9  C   UNL     1      -4.212  -0.106   1.067  0.00  0.00    +0.001 A 
ATOM     10  C   UNL     1      -3.280  -1.112   1.403  0.00  0.00    +0.022 A 
BRANCH   9  11
ATOM     11  C   UNL     1      -4.862   0.776   2.171  0.00  0.00    -0.009 C 
ATOM     12  C   UNL     1      -4.175   0.616   3.554  0.00  0.00    +0.015 C 
ATOM     13  C   UNL     1      -4.748   2.276   1.799  0.00  0.00    +0.015 C 
ATOM     14  C   UNL     1      -6.347   0.390   2.349  0.00  0.00    +0.015 C 
ENDBRANCH   9  11
BRANCH   7  15
ATOM     15  C   UNL     1      -3.992  -0.348  -2.849  0.00  0.00    -0.009 C 
ATOM     16  C   UNL     1      -5.181  -1.134  -3.439  0.00  0.00    +0.015 C 
ATOM     17  C   UNL     1      -4.170   1.175  -3.105  0.00  0.00    +0.015 C 
ATOM     18  C   UNL     1      -2.719  -0.762  -3.645  0.00  0.00    +0.015 C 
ENDBRANCH   7  15
BRANCH   8  19
ATOM     19  O   UNL     1      -5.683   0.815  -0.614  0.00  0.00    -0.506 OA
ATOM     20  H   UNL     1      -6.301   0.624  -1.385  0.00  0.00    +0.292 HD
ENDBRANCH   8  19
ENDBRANCH   4   5
ENDBRANCH   2   4
BRANCH   2  21
ATOM     21  S   UNL     1       0.328  -1.576  -0.810  0.00  0.00    -0.108 S 
BRANCH  21  22
ATOM     22  C   UNL     1       1.884  -0.715  -0.530  0.00  0.00    +0.010 A 
ATOM     23  C   UNL     1       3.086  -1.372  -0.756  0.00  0.00    +0.022 A 
ATOM     24  C   UNL     1       4.330  -0.746  -0.523  0.00  0.00    +0.001 A 
ATOM     25  C   UNL     1       4.309   0.654  -0.214  0.00  0.00    +0.124 A 
ATOM     26  C   UNL     1       3.081   1.325   0.073  0.00  0.00    +0.001 A 
ATOM     27  C   UNL     1       1.879   0.613  -0.127  0.00  0.00    +0.022 A 
BRANCH  26  28
ATOM     28  C   UNL     1       3.056   2.810   0.539  0.00  0.00    -0.009 C 
ATOM     29  C   UNL     1       3.926   2.989   1.808  0.00  0.00    +0.015 C 
ATOM     30  C   UNL     1       1.633   3.305   0.912  0.00  0.00    +0.015 C 
ATOM     31  C   UNL     1       3.573   3.731  -0.589  0.00  0.00    +0.015 C 
ENDBRANCH  26  28
BRANCH  24  32
ATOM     32  C   UNL     1       5.639  -1.590  -0.613  0.00  0.00    -0.009 C 
ATOM     33  C   UNL     1       6.650  -1.201   0.501  0.00  0.00    +0.015 C 
ATOM     34  C   UNL     1       5.368  -3.111  -0.415  0.00  0.00    +0.015 C 
ATOM     35  C   UNL     1       6.277  -1.421  -2.007  0.00  0.00    +0.015 C 
ENDBRANCH  24  32
BRANCH  25  36
ATOM     36  O   UNL     1       5.477   1.413  -0.221  0.00  0.00    -0.506 OA
ATOM     37  H   UNL     1       6.249   1.242  -0.846  0.00  0.00    +0.292 HD
ENDBRANCH  25  36
ENDBRANCH  21  22
ENDBRANCH   2  21
TORSDOF 10
