REMARK  Name = 
REMARK  5 active torsions:
REMARK  status: ('A' for Active; 'I' for Inactive)
REMARK    1  A    between atoms: C_1  and  N_2
REMARK    2  A    between atoms: N_5  and  C_6
REMARK    3  A    between atoms: C_6  and  C_7
REMARK    4  A    between atoms: C_7  and  C_8
REMARK    5  A    between atoms: C_8  and  N_9
REMARK                            x       y       z     vdW  Elec       q    Type
REMARK                         _______ _______ _______ _____ _____    ______ ____
ROOT
ATOM      1  N   UNL     1      -2.200  -0.028   1.104  0.00  0.00    -0.298 N 
ATOM      2  C   UNL     1      -2.726   1.286   0.825  0.00  0.00    +0.048 A 
ATOM      3  C   UNL     1      -2.701   2.293   1.803  0.00  0.00    +0.024 A 
ATOM      4  C   UNL     1      -3.358   3.507   1.577  0.00  0.00    +0.002 A 
ATOM      5  C   UNL     1      -4.059   3.716   0.386  0.00  0.00    +0.001 A 
ATOM      6  C   UNL     1      -4.093   2.717  -0.591  0.00  0.00    +0.017 A 
ATOM      7  C   UNL     1      -3.417   1.511  -0.381  0.00  0.00    +0.034 A 
ATOM      8  S   UNL     1      -3.350   0.273  -1.680  0.00  0.00    -0.086 S 
ATOM      9  C   UNL     1      -3.674  -1.089  -0.555  0.00  0.00    +0.034 A 
ATOM     10  C   UNL     1      -2.968  -1.165   0.660  0.00  0.00    +0.049 A 
ATOM     11  C   UNL     1      -3.149  -2.281   1.493  0.00  0.00    +0.044 A 
ATOM     12  C   UNL     1      -4.025  -3.306   1.116  0.00  0.00    +0.043 A 
ATOM     13 CL   UNL     1      -4.253  -4.694   2.164  0.00  0.00    -0.083 Cl
ATOM     14  C   UNL     1      -4.737  -3.212  -0.085  0.00  0.00    +0.021 A 
ATOM     15  C   UNL     1      -4.565  -2.104  -0.917  0.00  0.00    +0.018 A 
ENDROOT
BRANCH   1  16
ATOM     16  C   UNL     1      -0.810  -0.195   1.549  0.00  0.00    +0.112 C 
BRANCH  16  17
ATOM     17  C   UNL     1       0.119  -0.291   0.336  0.00  0.00    +0.035 C 
BRANCH  17  18
ATOM     18  C   UNL     1       1.588  -0.425   0.766  0.00  0.00    +0.086 C 
BRANCH  18  23
ATOM     19  C   UNL     1       6.202   0.241  -1.947  0.00  0.00    +0.105 C 
ATOM     20  N   UNL     1       4.976   0.684  -1.263  0.00  0.00    -0.303 NA
ATOM     21  C   UNL     1       3.801   0.501  -2.144  0.00  0.00    +0.099 C 
ATOM     22  C   UNL     1       2.502   0.467  -1.330  0.00  0.00    +0.100 C 
ATOM     23  N   UNL     1       2.469  -0.687  -0.394  0.00  0.00    -0.300 NA
ATOM     24  C   UNL     1       3.820  -1.126   0.039  0.00  0.00    +0.100 C 
ATOM     25  C   UNL     1       4.830   0.034   0.063  0.00  0.00    +0.099 C 
ENDBRANCH  18  23
ENDBRANCH  17  18
ENDBRANCH  16  17
ENDBRANCH   1  16
TORSDOF 4
