REMARK  Name = 
REMARK  9 active torsions:
REMARK  status: ('A' for Active; 'I' for Inactive)
REMARK    1  A    between atoms: C_1  and  C_2
REMARK    2  A    between atoms: C_2  and  N_3
REMARK    3  A    between atoms: N_3  and  C_4
REMARK    4  A    between atoms: N_3  and  C_6
REMARK    5  A    between atoms: C_4  and  C_5
REMARK    6  A    between atoms: C_6  and  C_7
REMARK    7  A    between atoms: C_7  and  N_8
REMARK    8  A    between atoms: C_9  and  C_11
REMARK    9  A    between atoms: C_14  and  N_15
REMARK                            x       y       z     vdW  Elec       q    Type
REMARK                         _______ _______ _______ _____ _____    ______ ____
ROOT
ATOM      1  N   UNL     1      -0.403   0.319   1.426  0.00  0.00    -0.310 N 
ATOM      2  C   UNL     1      -1.158   1.260   0.644  0.00  0.00    +0.244 C 
ATOM      3  O   UNL     1      -0.862   2.486   0.690  0.00  0.00    -0.270 OA
ATOM      4  H   UNL     1      -0.594  -0.704   1.343  0.00  0.00    +0.149 HD
ENDROOT
BRANCH   2   5
ATOM      5  C   UNL     1      -2.259   0.813  -0.242  0.00  0.00    +0.037 A 
ATOM      6  C   UNL     1      -2.603   1.578  -1.372  0.00  0.00    +0.015 A 
ATOM      7  C   UNL     1      -3.637   1.169  -2.219  0.00  0.00    +0.023 A 
ATOM      8  C   UNL     1      -4.349  -0.006  -1.947  0.00  0.00    +0.025 A 
ATOM      9  C   UNL     1      -4.021  -0.766  -0.817  0.00  0.00    +0.023 A 
ATOM     10  C   UNL     1      -2.986  -0.360   0.031  0.00  0.00    +0.015 A 
BRANCH   8  11
ATOM     11  N   UNL     1      -5.407  -0.424  -2.813  0.00  0.00    -0.358 N 
ATOM     12  H   UNL     1      -5.945  -1.298  -2.618  0.00  0.00    +0.142 HD
ATOM     13  H   UNL     1      -5.661   0.137  -3.657  0.00  0.00    +0.142 HD
ENDBRANCH   8  11
ENDBRANCH   2   5
BRANCH   1  14
ATOM     14  C   UNL     1       0.689   0.730   2.306  0.00  0.00    +0.120 C 
BRANCH  14  15
ATOM     15  C   UNL     1       1.958   1.046   1.508  0.00  0.00    +0.103 C 
BRANCH  15  16
ATOM     16  N   UNL     1       2.423  -0.168   0.791  0.00  0.00    -0.301 NA
BRANCH  16  18
ATOM     17  C   UNL     1       4.157  -1.077   2.296  0.00  0.00    +0.020 C 
ATOM     18  C   UNL     1       3.877  -0.386   0.964  0.00  0.00    +0.081 C 
ENDBRANCH  16  18
BRANCH  16  19
ATOM     19  C   UNL     1       2.053  -0.135  -0.643  0.00  0.00    +0.081 C 
ATOM     20  C   UNL     1       1.769  -1.546  -1.149  0.00  0.00    +0.020 C 
ENDBRANCH  16  19
ENDBRANCH  15  16
ENDBRANCH  14  15
ENDBRANCH   1  14
TORSDOF 7
