REMARK  Name = 
REMARK  6 active torsions:
REMARK  status: ('A' for Active; 'I' for Inactive)
REMARK    1  A    between atoms: O_1  and  C_2
REMARK    2  A    between atoms: C_2  and  C_3
REMARK    3  A    between atoms: C_2  and  C_10
REMARK    4  A    between atoms: C_2  and  C_16
REMARK    5  A    between atoms: C_3  and  C_4
REMARK    6  A    between atoms: C_4  and  N_5
REMARK                            x       y       z     vdW  Elec       q    Type
REMARK                         _______ _______ _______ _____ _____    ______ ____
ROOT
ATOM      1  C   UNL     1      -0.642  -0.681  -0.589  0.00  0.00    +0.095 C 
ENDROOT
BRANCH   1   2
ATOM      2  C   UNL     1      -1.490   0.355   0.240  0.00  0.00    +0.025 C 
ATOM      3  C   UNL     1      -3.005   0.282  -0.080  0.00  0.00    +0.007 C 
ATOM      4  C   UNL     1      -3.842   1.153   0.882  0.00  0.00    +0.000 C 
ATOM      5  C   UNL     1      -3.065   2.345   1.467  0.00  0.00    +0.000 C 
ATOM      6  C   UNL     1      -2.044   2.886   0.466  0.00  0.00    +0.000 C 
ATOM      7  C   UNL     1      -1.001   1.821   0.066  0.00  0.00    +0.007 C 
ENDBRANCH   1   2
BRANCH   1   8
ATOM      8  C   UNL     1      -1.193  -2.095  -0.315  0.00  0.00    -0.016 A 
ATOM      9  C   UNL     1      -1.950  -2.796  -1.281  0.00  0.00    +0.006 A 
ATOM     10  C   UNL     1      -2.473  -4.061  -0.998  0.00  0.00    +0.000 A 
ATOM     11  C   UNL     1      -2.264  -4.644   0.252  0.00  0.00    +0.000 A 
ATOM     12  C   UNL     1      -1.540  -3.959   1.227  0.00  0.00    +0.000 A 
ATOM     13  C   UNL     1      -1.015  -2.693   0.952  0.00  0.00    +0.006 A 
ENDBRANCH   1   8
BRANCH   1  14
ATOM     14  O   UNL     1      -0.768  -0.362  -1.958  0.00  0.00    -0.384 OA
ATOM     15  H   UNL     1      -0.241  -1.025  -2.477  0.00  0.00    +0.211 HD
ENDBRANCH   1  14
BRANCH   1  16
ATOM     16  C   UNL     1       0.875  -0.650  -0.166  0.00  0.00    +0.055 C 
BRANCH  16  17
ATOM     17  C   UNL     1       1.792   0.279  -0.992  0.00  0.00    +0.087 C 
BRANCH  17  18
ATOM     18  N   UNL     1       3.170   0.248  -0.461  0.00  0.00    -0.302 NA
ATOM     19  C   UNL     1       3.316   0.990   0.801  0.00  0.00    +0.084 C 
ATOM     20  C   UNL     1       4.707   1.616   0.809  0.00  0.00    +0.017 C 
ATOM     21  C   UNL     1       5.292   1.335  -0.562  0.00  0.00    +0.017 C 
ATOM     22  C   UNL     1       4.115   0.868  -1.393  0.00  0.00    +0.084 C 
ENDBRANCH  17  18
ENDBRANCH  16  17
ENDBRANCH   1  16
TORSDOF 6
