REMARK  Name = 
REMARK  10 active torsions:
REMARK  status: ('A' for Active; 'I' for Inactive)
REMARK    1  A    between atoms: C_1  and  C_2
REMARK    2  A    between atoms: C_2  and  N_3
REMARK    3  A    between atoms: N_3  and  C_4
REMARK    4  A    between atoms: N_3  and  C_6
REMARK    5  A    between atoms: C_4  and  C_5
REMARK    6  A    between atoms: C_6  and  C_7
REMARK    7  A    between atoms: C_7  and  O_8
REMARK    8  A    between atoms: O_8  and  C_9
REMARK    9  A    between atoms: C_9  and  C_11
REMARK   10  A    between atoms: C_14  and  N_15
REMARK                            x       y       z     vdW  Elec       q    Type
REMARK                         _______ _______ _______ _____ _____    ______ ____
ROOT
ATOM      1  C   UNL     1       1.249  -0.728  -0.323  0.00  0.00    +0.339 C 
ATOM      2  O   UNL     1       0.665  -1.556   0.431  0.00  0.00    -0.245 OA
ENDROOT
BRANCH   1   3
ATOM      3  C   UNL     1       2.684  -0.426  -0.122  0.00  0.00    +0.059 A 
ATOM      4  C   UNL     1       3.413  -1.053   0.904  0.00  0.00    +0.017 A 
ATOM      5  C   UNL     1       4.768  -0.763   1.090  0.00  0.00    +0.023 A 
ATOM      6  C   UNL     1       5.415   0.157   0.254  0.00  0.00    +0.025 A 
ATOM      7  C   UNL     1       4.693   0.784  -0.770  0.00  0.00    +0.023 A 
ATOM      8  C   UNL     1       3.338   0.496  -0.958  0.00  0.00    +0.017 A 
BRANCH   6   9
ATOM      9  N   UNL     1       6.801   0.453   0.444  0.00  0.00    -0.358 N 
ATOM     10  H   UNL     1       7.347  -0.010   1.205  0.00  0.00    +0.142 HD
ATOM     11  H   UNL     1       7.291   1.137  -0.174  0.00  0.00    +0.142 HD
ENDBRANCH   6   9
ENDBRANCH   1   3
BRANCH   1  12
ATOM     12  O   UNL     1       0.542  -0.098  -1.355  0.00  0.00    -0.460 OA
BRANCH  12  13
ATOM     13  C   UNL     1      -0.853  -0.286  -1.581  0.00  0.00    +0.248 C 
BRANCH  13  14
ATOM     14  C   UNL     1      -1.673   0.485  -0.542  0.00  0.00    +0.125 C 
BRANCH  14  15
ATOM     15  N   UNL     1      -3.119   0.407  -0.848  0.00  0.00    -0.300 NA
BRANCH  15  17
ATOM     16  C   UNL     1      -3.329  -1.714   0.550  0.00  0.00    +0.020 C 
ATOM     17  C   UNL     1      -3.768  -0.919  -0.688  0.00  0.00    +0.081 C 
ENDBRANCH  15  17
BRANCH  15  18
ATOM     18  C   UNL     1      -3.907   1.550  -0.336  0.00  0.00    +0.081 C 
ATOM     19  C   UNL     1      -4.054   1.563   1.187  0.00  0.00    +0.020 C 
ENDBRANCH  15  18
ENDBRANCH  14  15
ENDBRANCH  13  14
ENDBRANCH  12  13
ENDBRANCH   1  12
TORSDOF 8
