REMARK  Name = 
REMARK  10 active torsions:
REMARK  status: ('A' for Active; 'I' for Inactive)
REMARK    1  A    between atoms: C_1  and  C_2
REMARK    2  A    between atoms: C_2  and  C_3
REMARK    3  A    between atoms: C_3  and  N_4
REMARK    4  A    between atoms: C_3  and  C_8
REMARK    5  A    between atoms: N_4  and  C_5
REMARK    6  A    between atoms: C_5  and  C_6
REMARK    7  A    between atoms: C_5  and  C_7
REMARK    8  A    between atoms: C_8  and  O_9
REMARK    9  A    between atoms: C_8  and  C_10
REMARK   10  A    between atoms: C_18  and  O_19
REMARK                            x       y       z     vdW  Elec       q    Type
REMARK                         _______ _______ _______ _____ _____    ______ ____
ROOT
ATOM      1  C   UNL     1      -1.267  -0.699   0.486  0.00  0.00    -0.008 A 
ATOM      2  C   UNL     1      -2.199   0.274   0.002  0.00  0.00    +0.008 A 
ATOM      3  C   UNL     1      -2.294   1.581   0.529  0.00  0.00    +0.016 A 
ATOM      4  C   UNL     1      -3.211   2.493   0.014  0.00  0.00    +0.071 A 
ATOM      5  C   UNL     1      -4.049   2.114  -1.028  0.00  0.00    +0.249 A 
ATOM      6  O   UNL     1      -4.880   2.938  -1.496  0.00  0.00    -0.268 OA
ATOM      7  N   UNL     1      -3.975   0.857  -1.539  0.00  0.00    -0.319 N 
ATOM      8  C   UNL     1      -3.087  -0.068  -1.060  0.00  0.00    +0.091 A 
ATOM      9  C   UNL     1      -3.054  -1.359  -1.616  0.00  0.00    +0.141 A 
ATOM     10  C   UNL     1      -2.160  -2.306  -1.124  0.00  0.00    +0.048 A 
ATOM     11  C   UNL     1      -1.287  -1.985  -0.091  0.00  0.00    +0.010 A 
ATOM     12  H   UNL     1      -4.625   0.609  -2.320  0.00  0.00    +0.169 HD
ENDROOT
BRANCH   9  13
ATOM     13  O   UNL     1      -3.918  -1.702  -2.658  0.00  0.00    -0.505 OA
ATOM     14  H   UNL     1      -3.912  -2.627  -3.072  0.00  0.00    +0.292 HD
ENDBRANCH   9  13
BRANCH   1  15
ATOM     15  C   UNL     1      -0.239  -0.429   1.595  0.00  0.00    +0.162 C 
BRANCH  15  16
ATOM     16  O   UNL     1      -0.173  -1.551   2.443  0.00  0.00    -0.386 OA
ATOM     17  H   UNL     1       0.308  -1.274   3.267  0.00  0.00    +0.210 HD
ENDBRANCH  15  16
BRANCH  15  18
ATOM     18  C   UNL     1       1.192  -0.094   1.042  0.00  0.00    +0.087 C 
BRANCH  18  20
ATOM     19  C   UNL     1       1.290   2.457   1.266  0.00  0.00    +0.005 C 
ATOM     20  C   UNL     1       1.203   1.270   0.303  0.00  0.00    +0.018 C 
ENDBRANCH  18  20
BRANCH  18  21
ATOM     21  N   UNL     1       1.684  -1.196   0.174  0.00  0.00    -0.308 NA
ATOM     22  H   UNL     1       1.501  -2.094   0.680  0.00  0.00    +0.123 HD
BRANCH  21  23
ATOM     23  C   UNL     1       3.126  -1.237  -0.194  0.00  0.00    +0.048 C 
ATOM     24  C   UNL     1       3.339  -0.780  -1.643  0.00  0.00    +0.023 C 
ATOM     25  C   UNL     1       4.087  -0.531   0.779  0.00  0.00    +0.023 C 
ENDBRANCH  21  23
ENDBRANCH  18  21
ENDBRANCH  15  18
ENDBRANCH   1  15
TORSDOF 7
