REMARK  Name = 
REMARK  8 active torsions:
REMARK  status: ('A' for Active; 'I' for Inactive)
REMARK    1  A    between atoms: C_1  and  N_2
REMARK    2  A    between atoms: N_2  and  N_3
REMARK    3  A    between atoms: N_3  and  C_4
REMARK    4  A    between atoms: C_4  and  C_5
REMARK    5  A    between atoms: C_8  and  C_11
REMARK    6  A    between atoms: N_13  and  C_14
REMARK    7  A    between atoms: C_14  and  C_15
REMARK    8  A    between atoms: C_14  and  C_16
REMARK                            x       y       z     vdW  Elec       q    Type
REMARK                         _______ _______ _______ _____ _____    ______ ____
ROOT
ATOM      1  C   UNL     1       1.984  -0.846   0.258  0.00  0.00    -0.032 A 
ATOM      2  C   UNL     1       1.077  -0.291   1.172  0.00  0.00    +0.005 A 
ATOM      3  C   UNL     1      -0.282  -0.203   0.856  0.00  0.00    +0.013 A 
ATOM      4  C   UNL     1      -0.755  -0.655  -0.389  0.00  0.00    +0.037 A 
ATOM      5  C   UNL     1       0.159  -1.208  -1.303  0.00  0.00    +0.013 A 
ATOM      6  C   UNL     1       1.517  -1.294  -0.986  0.00  0.00    +0.005 A 
ENDROOT
BRANCH   4   7
ATOM      7  C   UNL     1      -2.195  -0.575  -0.736  0.00  0.00    +0.244 C 
ATOM      8  O   UNL     1      -2.665  -1.359  -1.606  0.00  0.00    -0.270 OA
ATOM      9  N   UNL     1      -3.057   0.392  -0.112  0.00  0.00    -0.309 N 
ATOM     10  H   UNL     1      -2.625   1.187   0.412  0.00  0.00    +0.149 HD
BRANCH   9  11
ATOM     11  C   UNL     1      -4.514   0.358  -0.276  0.00  0.00    +0.067 C 
ATOM     12  C   UNL     1      -5.108  -0.794   0.541  0.00  0.00    +0.027 C 
ATOM     13  C   UNL     1      -5.132   1.692   0.157  0.00  0.00    +0.027 C 
ENDBRANCH   9  11
ENDBRANCH   4   7
BRANCH   1  14
ATOM     14  C   UNL     1       3.452  -0.906   0.583  0.00  0.00    +0.133 C 
BRANCH  14  15
ATOM     15  N   UNL     1       4.130   0.275   0.040  0.00  0.00    -0.253 NA
ATOM     16  H   UNL     1       3.756   1.103   0.564  0.00  0.00    +0.141 HD
BRANCH  15  18
ATOM     17  C   UNL     1       6.182   1.359  -0.201  0.00  0.00    +0.120 C 
ATOM     18  N   UNL     1       5.508   0.174   0.330  0.00  0.00    -0.259 NA
ATOM     19  H   UNL     1       5.888  -0.642  -0.207  0.00  0.00    +0.140 HD
ENDBRANCH  15  18
ENDBRANCH  14  15
ENDBRANCH   1  14
TORSDOF 5
