REMARK  Name = 
REMARK  2 active torsions:
REMARK  status: ('A' for Active; 'I' for Inactive)
REMARK    1  A    between atoms: N_1  and  C_2
REMARK    2  A    between atoms: C_10  and  N_11
REMARK                            x       y       z     vdW  Elec       q    Type
REMARK                         _______ _______ _______ _____ _____    ______ ____
ROOT
ATOM      1  C   UNL     1      -3.573   0.498   0.606  0.00  0.00    +0.027 A 
ATOM      2  C   UNL     1      -2.308   1.020   0.914  0.00  0.00    +0.051 A 
ATOM      3  C   UNL     1      -1.155   0.424   0.393  0.00  0.00    +0.073 A 
ATOM      4  N   UNL     1       0.070   0.933   0.695  0.00  0.00    -0.247 NA
ATOM      5  C   UNL     1       1.215   0.384   0.208  0.00  0.00    +0.073 A 
ATOM      6  C   UNL     1       1.154  -0.748  -0.635  0.00  0.00    +0.001 A 
ATOM      7  C   UNL     1       2.339  -1.308  -1.133  0.00  0.00    +0.012 A 
ATOM      8  C   UNL     1       3.575  -0.748  -0.794  0.00  0.00    +0.023 A 
ATOM      9  C   UNL     1       3.639   0.375   0.044  0.00  0.00    +0.027 A 
ATOM     10  C   UNL     1       2.455   0.939   0.543  0.00  0.00    +0.051 A 
ATOM     11  C   UNL     1      -0.097  -1.290  -0.960  0.00  0.00    +0.020 A 
ATOM     12  C   UNL     1      -1.263  -0.707  -0.447  0.00  0.00    +0.001 A 
ATOM     13  C   UNL     1      -2.529  -1.226  -0.753  0.00  0.00    +0.012 A 
ATOM     14  C   UNL     1      -3.678  -0.625  -0.228  0.00  0.00    +0.023 A 
ENDROOT
BRANCH   1  15
ATOM     15  N   UNL     1      -4.752   1.108   1.140  0.00  0.00    -0.358 N 
ATOM     16  H   UNL     1      -5.699   0.728   0.917  0.00  0.00    +0.142 HD
ATOM     17  H   UNL     1      -4.686   1.944   1.762  0.00  0.00    +0.142 HD
ENDBRANCH   1  15
BRANCH   9  18
ATOM     18  N   UNL     1       4.906   0.944   0.387  0.00  0.00    -0.358 N 
ATOM     19  H   UNL     1       5.793   0.532   0.021  0.00  0.00    +0.142 HD
ATOM     20  H   UNL     1       4.965   1.780   1.009  0.00  0.00    +0.142 HD
ENDBRANCH   9  18
TORSDOF 2
