REMARK  Name = 
REMARK  5 active torsions:
REMARK  status: ('A' for Active; 'I' for Inactive)
REMARK    1  A    between atoms: C_1  and  C_2
REMARK    2  A    between atoms: C_2  and  C_3
REMARK    3  A    between atoms: C_2  and  N_4
REMARK    4  A    between atoms: C_5  and  N_7
REMARK    5  A    between atoms: N_10  and  C_11
REMARK                            x       y       z     vdW  Elec       q    Type
REMARK                         _______ _______ _______ _____ _____    ______ ____
ROOT
ATOM      1  N   UNL     1      -0.237  -0.104   0.250  0.00  0.00    -0.179 NA
ATOM      2  C   UNL     1      -0.827  -0.255  -0.903  0.00  0.00    +0.203 C 
ATOM      3  N   UNL     1      -0.341  -1.199  -1.861  0.00  0.00    -0.369 N 
ATOM      4  N   UNL     1      -2.017   0.496  -1.201  0.00  0.00    -0.326 N 
ATOM      5  H   UNL     1      -0.812  -1.321  -2.784  0.00  0.00    +0.159 HD
ATOM      6  H   UNL     1      -0.810  -1.323  -2.785  0.00  0.00    +0.159 HD
ATOM      7  H   UNL     1      -2.640   0.136  -1.959  0.00  0.00    +0.169 HD
ENDROOT
BRANCH   4   8
ATOM      8  C   UNL     1      -2.460   1.645  -0.458  0.00  0.00    +0.042 A 
ATOM      9  C   UNL     1      -3.836   1.881  -0.312  0.00  0.00    +0.027 A 
ATOM     10  C   UNL     1      -4.292   3.005   0.385  0.00  0.00    +0.022 A 
ATOM     11  C   UNL     1      -3.377   3.910   0.931  0.00  0.00    +0.041 A 
ATOM     12 CL   UNL     1      -3.950   5.320   1.803  0.00  0.00    -0.084 Cl
ATOM     13  C   UNL     1      -2.004   3.696   0.769  0.00  0.00    +0.022 A 
ATOM     14  C   UNL     1      -1.546   2.574   0.073  0.00  0.00    +0.027 A 
ENDBRANCH   4   8
BRANCH   1  16
ATOM     15  N   UNL     1       1.541  -1.671   0.004  0.00  0.00    -0.248 NA
ATOM     16  C   UNL     1       0.941  -0.771   0.735  0.00  0.00    +0.220 C 
ATOM     17  N   UNL     1       1.420  -0.422   2.039  0.00  0.00    -0.368 N 
ATOM     18  H   UNL     1       2.249  -0.874   2.482  0.00  0.00    +0.159 HD
ATOM     19  H   UNL     1       0.917   0.307   2.592  0.00  0.00    +0.159 HD
BRANCH  15  21
ATOM     20  C   UNL     1       3.991  -1.539   0.153  0.00  0.00    +0.032 C 
ATOM     21  C   UNL     1       2.752  -2.421   0.343  0.00  0.00    +0.103 C 
ATOM     22  C   UNL     1       2.837  -3.651  -0.560  0.00  0.00    +0.032 C 
ENDBRANCH  15  21
ENDBRANCH   1  16
TORSDOF 3
