REMARK  Name = 
REMARK  6 active torsions:
REMARK  status: ('A' for Active; 'I' for Inactive)
REMARK    1  A    between atoms: C_2  and  C_4
REMARK    2  A    between atoms: C_4  and  C_5
REMARK    3  A    between atoms: C_5  and  C_6
REMARK    4  A    between atoms: C_6  and  N_7
REMARK    5  A    between atoms: N_7  and  C_8
REMARK    6  A    between atoms: C_8  and  C_9
REMARK                            x       y       z     vdW  Elec       q    Type
REMARK                         _______ _______ _______ _____ _____    ______ ____
ROOT
ATOM      1  C   UNL     1      -0.518   0.631  -0.118  0.00  0.00    +0.045 C 
ATOM      2  C   UNL     1      -1.166   1.830  -0.140  0.00  0.00    +0.046 C 
ATOM      3  C   UNL     1      -0.513   3.038  -0.723  0.00  0.00    +0.052 C 
ATOM      4  C   UNL     1      -1.157   4.209  -0.801  0.00  0.00    +0.124 C 
ATOM      5  F   UNL     1      -0.534   5.277  -1.359  0.00  0.00    -0.205 F 
ATOM      6  C   UNL     1      -2.541   4.363  -0.314  0.00  0.00    +0.042 C 
ATOM      7  C   UNL     1      -3.199   3.341   0.236  0.00  0.00    +0.054 C 
ATOM      8  C   UNL     1      -2.554   2.026   0.384  0.00  0.00    +0.188 C 
ATOM      9  O   UNL     1      -3.175   1.117   0.996  0.00  0.00    -0.287 OA
ENDROOT
BRANCH   1  10
ATOM     10  C   UNL     1      -1.215  -0.629   0.224  0.00  0.00    -0.003 A 
ATOM     11  C   UNL     1      -2.186  -1.161  -0.640  0.00  0.00    +0.011 A 
ATOM     12  C   UNL     1      -2.810  -2.374  -0.332  0.00  0.00    +0.020 A 
ATOM     13  C   UNL     1      -2.461  -3.066   0.833  0.00  0.00    +0.041 A 
ATOM     14 CL   UNL     1      -3.243  -4.589   1.216  0.00  0.00    -0.084 Cl
ATOM     15  C   UNL     1      -1.486  -2.545   1.690  0.00  0.00    +0.020 A 
ATOM     16  C   UNL     1      -0.861  -1.332   1.385  0.00  0.00    +0.011 A 
ENDBRANCH   1  10
BRANCH   1  17
ATOM     17  N   UNL     1       0.886   0.550  -0.427  0.00  0.00    -0.343 N 
ATOM     18  H   UNL     1       1.518   1.326  -0.128  0.00  0.00    +0.146 HD
BRANCH  17  19
ATOM     19  C   UNL     1       1.443  -0.590  -1.161  0.00  0.00    +0.102 C 
BRANCH  19  20
ATOM     20  C   UNL     1       2.954  -0.436  -1.392  0.00  0.00    +0.028 C 
BRANCH  20  21
ATOM     21  C   UNL     1       3.782  -0.562  -0.103  0.00  0.00    +0.097 C 
BRANCH  21  23
ATOM     22  N   UNL     1       2.902  -2.253   1.581  0.00  0.00    -0.329 N 
ATOM     23  C   UNL     1       3.732  -1.953   0.459  0.00  0.00    +0.211 C 
ATOM     24  O   UNL     1       4.409  -2.869  -0.080  0.00  0.00    -0.276 OA
ATOM     25  H   UNL     1       2.334  -1.506   2.039  0.00  0.00    +0.145 HD
ATOM     26  H   UNL     1       2.853  -3.227   1.954  0.00  0.00    +0.145 HD
ENDBRANCH  21  23
ENDBRANCH  20  21
ENDBRANCH  19  20
ENDBRANCH  17  19
ENDBRANCH   1  17
TORSDOF 6
