REMARK  Name = 
REMARK  4 active torsions:
REMARK  status: ('A' for Active; 'I' for Inactive)
REMARK    1  A    between atoms: C_4  and  C_5
REMARK    2  A    between atoms: C_5  and  C_6
REMARK    3  A    between atoms: C_8  and  C_9
REMARK    4  A    between atoms: C_22  and  C_23
REMARK                            x       y       z     vdW  Elec       q    Type
REMARK                         _______ _______ _______ _____ _____    ______ ____
ROOT
ATOM      1  C   UNL     1      -1.268  -0.153   0.938  0.00  0.00    -0.001 C 
ATOM      2  C   UNL     1      -2.270  -1.158   1.500  0.00  0.00    +0.005 C 
ATOM      3  C   UNL     1      -3.640  -0.481   1.301  0.00  0.00    +0.012 C 
ATOM      4  C   UNL     1      -3.380   0.774   0.431  0.00  0.00    +0.061 C 
ATOM      5  C   UNL     1      -2.004   0.521  -0.229  0.00  0.00    -0.019 C 
ATOM      6  C   UNL     1      -2.156  -0.399  -1.483  0.00  0.00    +0.012 C 
ATOM      7  C   UNL     1      -1.223   1.801  -0.600  0.00  0.00    +0.008 C 
ATOM      8  C   UNL     1       0.246   1.478  -0.967  0.00  0.00    +0.005 C 
ATOM      9  C   UNL     1       0.985   0.618   0.111  0.00  0.00    +0.002 C 
ATOM     10  C   UNL     1       0.148  -0.630   0.554  0.00  0.00    -0.003 C 
ATOM     11  C   UNL     1       0.834  -1.317   1.746  0.00  0.00    +0.008 C 
ATOM     12  C   UNL     1       2.236  -1.786   1.369  0.00  0.00    +0.032 C 
ATOM     13  C   UNL     1       3.065  -0.646   0.825  0.00  0.00    -0.060 C 
ATOM     14  C   UNL     1       4.362  -0.573   1.175  0.00  0.00    +0.046 C 
ATOM     15  C   UNL     1       5.274   0.419   0.591  0.00  0.00    +0.156 C 
ATOM     16  O   UNL     1       6.473   0.467   0.976  0.00  0.00    -0.293 OA
ATOM     17  C   UNL     1       4.811   1.326  -0.502  0.00  0.00    +0.080 C 
ATOM     18  C   UNL     1       3.303   1.569  -0.396  0.00  0.00    +0.019 C 
ATOM     19  C   UNL     1       2.471   0.250  -0.275  0.00  0.00    -0.007 C 
ATOM     20  C   UNL     1       2.542  -0.524  -1.616  0.00  0.00    +0.016 C 
ENDROOT
BRANCH   4  21
ATOM     21  C   UNL     1      -4.505   1.186  -0.510  0.00  0.00    +0.134 C 
ATOM     22  C   UNL     1      -5.364   0.212  -1.270  0.00  0.00    +0.086 C 
ATOM     23  O   UNL     1      -4.710   2.378  -0.678  0.00  0.00    -0.297 OA
ENDBRANCH   4  21
TORSDOF 1
