REMARK  Name = 
REMARK  6 active torsions:
REMARK  status: ('A' for Active; 'I' for Inactive)
REMARK    1  A    between atoms: C_1  and  C_2
REMARK    2  A    between atoms: C_2  and  C_3
REMARK    3  A    between atoms: C_2  and  N_18
REMARK    4  A    between atoms: C_3  and  N_4
REMARK    5  A    between atoms: N_18  and  C_19
REMARK    6  A    between atoms: N_18  and  C_20
REMARK                            x       y       z     vdW  Elec       q    Type
REMARK                         _______ _______ _______ _____ _____    ______ ____
ROOT
ATOM      1  N   UNL     1      -0.573  -0.250   0.321  0.00  0.00    -0.297 N 
ATOM      2  C   UNL     1      -1.138   1.080   0.372  0.00  0.00    +0.048 A 
ATOM      3  C   UNL     1      -0.784   1.986   1.389  0.00  0.00    +0.024 A 
ATOM      4  C   UNL     1      -1.454   3.208   1.507  0.00  0.00    +0.002 A 
ATOM      5  C   UNL     1      -2.491   3.529   0.626  0.00  0.00    +0.001 A 
ATOM      6  C   UNL     1      -2.848   2.638  -0.390  0.00  0.00    +0.017 A 
ATOM      7  C   UNL     1      -2.164   1.426  -0.528  0.00  0.00    +0.034 A 
ATOM      8  S   UNL     1      -2.525   0.339  -1.911  0.00  0.00    -0.086 S 
ATOM      9  C   UNL     1      -2.522  -1.138  -0.891  0.00  0.00    +0.034 A 
ATOM     10  C   UNL     1      -3.520  -2.105  -1.051  0.00  0.00    +0.017 A 
ATOM     11  C   UNL     1      -3.471  -3.288  -0.310  0.00  0.00    +0.001 A 
ATOM     12  C   UNL     1      -2.433  -3.502   0.600  0.00  0.00    +0.002 A 
ATOM     13  C   UNL     1      -1.446  -2.528   0.782  0.00  0.00    +0.024 A 
ATOM     14  C   UNL     1      -1.479  -1.338   0.033  0.00  0.00    +0.048 A 
ENDROOT
BRANCH   1  15
ATOM     15  C   UNL     1       0.849  -0.502   0.616  0.00  0.00    +0.129 C 
BRANCH  15  17
ATOM     16  C   UNL     1       1.605  -0.146  -1.790  0.00  0.00    +0.026 C 
ATOM     17  C   UNL     1       1.779   0.299  -0.322  0.00  0.00    +0.071 C 
BRANCH  17  18
ATOM     18  N   UNL     1       3.183   0.220   0.166  0.00  0.00    -0.304 NA
ATOM     19  C   UNL     1       3.885  -1.030  -0.183  0.00  0.00    +0.104 C 
ATOM     20  C   UNL     1       3.980   1.386  -0.250  0.00  0.00    +0.104 C 
ENDBRANCH  17  18
ENDBRANCH  15  17
ENDBRANCH   1  15
TORSDOF 3
