REMARK  Name = 
REMARK  6 active torsions:
REMARK  status: ('A' for Active; 'I' for Inactive)
REMARK    1  A    between atoms: C_1  and  N_2
REMARK    2  A    between atoms: N_2  and  C_3
REMARK    3  A    between atoms: N_2  and  C_4
REMARK    4  A    between atoms: C_4  and  C_5
REMARK    5  A    between atoms: C_5  and  C_6
REMARK    6  A    between atoms: C_6  and  N_7
REMARK                            x       y       z     vdW  Elec       q    Type
REMARK                         _______ _______ _______ _____ _____    ______ ____
ROOT
ATOM      1  N   UNL     1      -0.433  -0.203  -0.918  0.00  0.00    -0.298 N 
ATOM      2  C   UNL     1      -0.878   1.128  -0.577  0.00  0.00    +0.048 A 
ATOM      3  C   UNL     1      -0.720   2.199  -1.475  0.00  0.00    +0.024 A 
ATOM      4  C   UNL     1      -1.294   3.443  -1.195  0.00  0.00    +0.002 A 
ATOM      5  C   UNL     1      -2.048   3.624  -0.033  0.00  0.00    +0.001 A 
ATOM      6  C   UNL     1      -2.221   2.564   0.861  0.00  0.00    +0.017 A 
ATOM      7  C   UNL     1      -1.629   1.324   0.598  0.00  0.00    +0.034 A 
ATOM      8  S   UNL     1      -1.758  -0.005   1.797  0.00  0.00    -0.086 S 
ATOM      9  C   UNL     1      -2.110  -1.248   0.551  0.00  0.00    +0.034 A 
ATOM     10  C   UNL     1      -3.106  -2.204   0.777  0.00  0.00    +0.017 A 
ATOM     11  C   UNL     1      -3.302  -3.238  -0.142  0.00  0.00    +0.001 A 
ATOM     12  C   UNL     1      -2.508  -3.315  -1.289  0.00  0.00    +0.002 A 
ATOM     13  C   UNL     1      -1.528  -2.348  -1.533  0.00  0.00    +0.024 A 
ATOM     14  C   UNL     1      -1.324  -1.300  -0.617  0.00  0.00    +0.048 A 
ENDROOT
BRANCH   1  15
ATOM     15  C   UNL     1       0.864  -0.422  -1.583  0.00  0.00    +0.112 C 
BRANCH  15  16
ATOM     16  C   UNL     1       1.762  -1.371  -0.774  0.00  0.00    +0.035 C 
BRANCH  16  17
ATOM     17  C   UNL     1       2.027  -0.874   0.658  0.00  0.00    +0.085 C 
BRANCH  17  19
ATOM     18  C   UNL     1       3.974   0.564   0.397  0.00  0.00    +0.104 C 
ATOM     19  N   UNL     1       2.527   0.519   0.669  0.00  0.00    -0.308 NA
ATOM     20  C   UNL     1       2.250   1.150   1.968  0.00  0.00    +0.104 C 
ENDBRANCH  17  19
ENDBRANCH  16  17
ENDBRANCH  15  16
ENDBRANCH   1  15
TORSDOF 4
