REMARK  Name = 
REMARK  5 active torsions:
REMARK  status: ('A' for Active; 'I' for Inactive)
REMARK    1  A    between atoms: C_1  and  N_2
REMARK    2  A    between atoms: N_2  and  C_3
REMARK    3  A    between atoms: C_3  and  C_4
REMARK    4  A    between atoms: C_3  and  C_5
REMARK    5  A    between atoms: C_5  and  C_6
REMARK                            x       y       z     vdW  Elec       q    Type
REMARK                         _______ _______ _______ _____ _____    ______ ____
ROOT
ATOM      1  C   UNL     1       0.855  -0.297   0.369  0.00  0.00    +0.022 C 
ENDROOT
BRANCH   1   2
ATOM      2  C   UNL     1      -0.430  -0.424  -0.486  0.00  0.00    -0.010 C 
ATOM      3  C   UNL     1      -1.197   0.924  -0.564  0.00  0.00    +0.003 C 
ATOM      4  C   UNL     1      -2.674   0.712  -0.909  0.00  0.00    +0.000 C 
ATOM      5  C   UNL     1      -3.396  -0.107   0.179  0.00  0.00    +0.000 C 
ATOM      6  C   UNL     1      -2.466  -1.082   0.928  0.00  0.00    +0.000 C 
ATOM      7  C   UNL     1      -1.333  -1.585   0.026  0.00  0.00    +0.003 C 
ENDBRANCH   1   2
BRANCH   1   8
ATOM      8  C   UNL     1       1.921   0.658  -0.255  0.00  0.00    +0.051 C 
ATOM      9  C   UNL     1       1.953   2.004   0.476  0.00  0.00    +0.024 C 
BRANCH   8  11
ATOM     10  C   UNL     1       3.502  -0.876  -1.298  0.00  0.00    +0.101 C 
ATOM     11  N   UNL     1       3.275   0.075  -0.205  0.00  0.00    -0.316 NA
ATOM     12  H   UNL     1       3.426  -0.413   0.709  0.00  0.00    +0.122 HD
ENDBRANCH   8  11
ENDBRANCH   1   8
TORSDOF 3
