REMARK  Name = 
REMARK  7 active torsions:
REMARK  status: ('A' for Active; 'I' for Inactive)
REMARK    1  A    between atoms: C_1  and  C_2
REMARK    2  A    between atoms: C_2  and  C_3
REMARK    3  A    between atoms: C_2  and  C_4
REMARK    4  A    between atoms: C_8  and  C_9
REMARK    5  A    between atoms: C_9  and  C_10
REMARK    6  A    between atoms: C_9  and  C_11
REMARK    7  A    between atoms: C_12  and  O_13
REMARK                            x       y       z     vdW  Elec       q    Type
REMARK                         _______ _______ _______ _____ _____    ______ ____
ROOT
ATOM      1  C   UNL     1      -1.313   0.102  -0.789  0.00  0.00    -0.003 A 
ATOM      2  C   UNL     1      -1.083   0.123  -2.175  0.00  0.00    +0.007 A 
ATOM      3  C   UNL     1       0.205   0.012  -2.684  0.00  0.00    +0.001 A 
ATOM      4  C   UNL     1       1.287  -0.156  -1.826  0.00  0.00    +0.007 A 
ATOM      5  C   UNL     1       1.100  -0.234  -0.431  0.00  0.00    -0.003 A 
ATOM      6  C   UNL     1      -0.210  -0.040   0.092  0.00  0.00    +0.124 A 
ENDROOT
BRANCH   1   8
ATOM      7  C   UNL     1      -3.211  -0.940   0.534  0.00  0.00    +0.012 C 
ATOM      8  C   UNL     1      -2.744   0.268  -0.290  0.00  0.00    +0.016 C 
ATOM      9  C   UNL     1      -2.933   1.583   0.477  0.00  0.00    +0.012 C 
ENDBRANCH   1   8
BRANCH   5  10
ATOM     10  C   UNL     1       2.303  -0.454   0.485  0.00  0.00    +0.016 C 
ATOM     11  C   UNL     1       2.954   0.887   0.836  0.00  0.00    +0.012 C 
ATOM     12  C   UNL     1       3.343  -1.427  -0.096  0.00  0.00    +0.012 C 
ENDBRANCH   5  10
BRANCH   6  13
ATOM     13  O   UNL     1      -0.442   0.037   1.469  0.00  0.00    -0.506 OA
ATOM     14  H   UNL     1       0.283   0.123   2.167  0.00  0.00    +0.292 HD
ENDBRANCH   6  13
TORSDOF 3
