REMARK  Name = 
REMARK  12 active torsions:
REMARK  status: ('A' for Active; 'I' for Inactive)
REMARK    1  A    between atoms: C_1  and  C_2
REMARK    2  A    between atoms: C_2  and  C_3
REMARK    3  A    between atoms: C_2  and  N_4
REMARK    4  A    between atoms: N_4  and  C_5
REMARK    5  A    between atoms: N_4  and  C_6
REMARK    6  A    between atoms: N_4  and  C_25
REMARK    7  A    between atoms: C_6  and  C_7
REMARK    8  A    between atoms: C_7  and  O_8
REMARK    9  A    between atoms: O_8  and  C_9
REMARK   10  A    between atoms: C_9  and  C_11
REMARK   11  A    between atoms: C_25  and  C_26
REMARK   12  A    between atoms: C_25  and  C_27
REMARK                            x       y       z     vdW  Elec       q    Type
REMARK                         _______ _______ _______ _____ _____    ______ ____
ROOT
ATOM      1  C   UNL     1       2.647  -1.111   1.318  0.00  0.00    +0.164 C 
ATOM      2  C   UNL     1       2.413  -1.530  -0.119  0.00  0.00    +0.013 A 
ATOM      3  C   UNL     1       1.473  -2.534  -0.413  0.00  0.00    +0.008 A 
ATOM      4  C   UNL     1       1.163  -2.846  -1.740  0.00  0.00    +0.001 A 
ATOM      5  C   UNL     1       1.784  -2.158  -2.784  0.00  0.00    +0.004 A 
ATOM      6  C   UNL     1       2.723  -1.161  -2.504  0.00  0.00    +0.046 A 
ATOM      7  C   UNL     1       3.043  -0.846  -1.179  0.00  0.00    +0.133 A 
ATOM      8  O   UNL     1       3.999   0.139  -0.919  0.00  0.00    -0.455 OA
ATOM      9  C   UNL     1       4.444   0.419   0.374  0.00  0.00    +0.133 A 
ATOM     10  C   UNL     1       5.504   1.314   0.555  0.00  0.00    +0.046 A 
ATOM     11  C   UNL     1       5.986   1.580   1.839  0.00  0.00    +0.004 A 
ATOM     12  C   UNL     1       5.410   0.954   2.947  0.00  0.00    +0.001 A 
ATOM     13  C   UNL     1       4.343   0.068   2.775  0.00  0.00    +0.008 A 
ATOM     14  C   UNL     1       3.849  -0.206   1.488  0.00  0.00    +0.013 A 
ENDROOT
BRANCH   1  15
ATOM     15  C   UNL     1       1.416  -0.404   1.804  0.00  0.00    +0.319 C 
ATOM     16  O   UNL     1       0.710  -0.921   2.713  0.00  0.00    -0.250 OA
BRANCH  15  17
ATOM     17  O   UNL     1       1.019   0.785   1.183  0.00  0.00    -0.466 OA
BRANCH  17  18
ATOM     18  C   UNL     1      -0.346   1.185   1.080  0.00  0.00    +0.214 C 
BRANCH  18  19
ATOM     19  C   UNL     1      -1.071   0.251   0.091  0.00  0.00    -0.033 C 
BRANCH  19  20
ATOM     20  N   UNL     1      -2.432   0.664  -0.419  0.00  0.00    +0.383 N 
ATOM     21  C   UNL     1      -2.313   1.949  -1.173  0.00  0.00    -0.091 C 
BRANCH  20  23
ATOM     22  C   UNL     1      -2.094  -0.509  -2.737  0.00  0.00    -0.013 C 
ATOM     23  C   UNL     1      -2.895  -0.413  -1.407  0.00  0.00    -0.072 C 
ATOM     24  C   UNL     1      -2.970  -1.842  -0.802  0.00  0.00    -0.013 C 
ENDBRANCH  20  23
BRANCH  20  25
ATOM     25  C   UNL     1      -3.426   0.814   0.743  0.00  0.00    -0.072 C 
ATOM     26  C   UNL     1      -3.394   2.177   1.499  0.00  0.00    -0.013 C 
ATOM     27  C   UNL     1      -4.920   0.604   0.365  0.00  0.00    -0.013 C 
ENDBRANCH  20  25
ENDBRANCH  19  20
ENDBRANCH  18  19
ENDBRANCH  17  18
ENDBRANCH  15  17
ENDBRANCH   1  15
TORSDOF 7
