REMARK  Name = 
REMARK  9 active torsions:
REMARK  status: ('A' for Active; 'I' for Inactive)
REMARK    1  A    between atoms: C_1  and  C_2
REMARK    2  A    between atoms: C_2  and  C_3
REMARK    3  A    between atoms: C_2  and  N_4
REMARK    4  A    between atoms: N_4  and  C_5
REMARK    5  A    between atoms: C_5  and  C_6
REMARK    6  A    between atoms: C_6  and  O_7
REMARK    7  A    between atoms: C_6  and  C_8
REMARK    8  A    between atoms: C_8  and  O_9
REMARK    9  A    between atoms: O_9  and  C_10
REMARK                            x       y       z     vdW  Elec       q    Type
REMARK                         _______ _______ _______ _____ _____    ______ ____
ROOT
ATOM      1  O   UNL     1      -1.062  -1.354  -0.915  0.00  0.00    -0.489 OA
ENDROOT
BRANCH   1   2
ATOM      2  C   UNL     1      -2.054  -0.356  -0.953  0.00  0.00    +0.128 A 
ATOM      3  C   UNL     1      -2.362   0.351  -2.133  0.00  0.00    +0.046 A 
ATOM      4  C   UNL     1      -3.356   1.331  -2.136  0.00  0.00    +0.004 A 
ATOM      5  C   UNL     1      -4.061   1.624  -0.970  0.00  0.00    +0.009 A 
ATOM      6  C   UNL     1      -3.777   0.935   0.216  0.00  0.00    -0.014 A 
ATOM      7  C   UNL     1      -4.485   1.230   1.392  0.00  0.00    +0.008 A 
ATOM      8  C   UNL     1      -4.199   0.544   2.575  0.00  0.00    +0.001 A 
ATOM      9  C   UNL     1      -3.206  -0.437   2.594  0.00  0.00    +0.001 A 
ATOM     10  C   UNL     1      -2.493  -0.741   1.432  0.00  0.00    +0.012 A 
ATOM     11  C   UNL     1      -2.768  -0.062   0.229  0.00  0.00    +0.024 A 
ENDBRANCH   1   2
BRANCH   1  12
ATOM     12  C   UNL     1      -0.131  -1.671  -1.953  0.00  0.00    +0.261 C 
BRANCH  12  13
ATOM     13  C   UNL     1       1.105  -0.754  -1.917  0.00  0.00    +0.166 C 
BRANCH  13  14
ATOM     14  O   UNL     1       0.764   0.570  -2.248  0.00  0.00    -0.387 OA
ATOM     15  H   UNL     1       0.331   0.983  -1.456  0.00  0.00    +0.210 HD
ENDBRANCH  13  14
BRANCH  13  16
ATOM     16  C   UNL     1       1.836  -0.829  -0.562  0.00  0.00    +0.115 C 
BRANCH  16  17
ATOM     17  N   UNL     1       3.035   0.020  -0.592  0.00  0.00    -0.311 NA
ATOM     18  H   UNL     1       3.745  -0.418  -1.225  0.00  0.00    +0.122 HD
BRANCH  17  20
ATOM     19  C   UNL     1       4.567   1.418   0.702  0.00  0.00    +0.023 C 
ATOM     20  C   UNL     1       3.619   0.219   0.747  0.00  0.00    +0.048 C 
ATOM     21  C   UNL     1       4.368  -1.032   1.240  0.00  0.00    +0.023 C 
ENDBRANCH  17  20
ENDBRANCH  16  17
ENDBRANCH  13  16
ENDBRANCH  12  13
ENDBRANCH   1  12
TORSDOF 7
