REMARK  Name = 
REMARK  14 active torsions:
REMARK  status: ('A' for Active; 'I' for Inactive)
REMARK    1  A    between atoms: C_1  and  C_2
REMARK    2  A    between atoms: C_2  and  C_3
REMARK    3  A    between atoms: C_3  and  O_4
REMARK    4  A    between atoms: O_4  and  C_5
REMARK    5  A    between atoms: C_6  and  N_7
REMARK    6  A    between atoms: C_9  and  C_12
REMARK    7  A    between atoms: C_12  and  O_14
REMARK    8  A    between atoms: O_14  and  C_15
REMARK    9  A    between atoms: C_15  and  C_16
REMARK   10  A    between atoms: C_16  and  N_17
REMARK   11  A    between atoms: N_17  and  C_18
REMARK   12  A    between atoms: N_17  and  C_20
REMARK   13  A    between atoms: C_18  and  C_19
REMARK   14  A    between atoms: C_20  and  C_21
REMARK                            x       y       z     vdW  Elec       q    Type
REMARK                         _______ _______ _______ _____ _____    ______ ____
ROOT
ATOM      1  C   UNL     1       3.720  -0.454   0.146  0.00  0.00    +0.141 A 
ATOM      2  C   UNL     1       3.085  -1.406  -0.672  0.00  0.00    +0.068 A 
ATOM      3  C   UNL     1       1.689  -1.540  -0.635  0.00  0.00    +0.041 A 
ATOM      4  C   UNL     1       0.910  -0.733   0.211  0.00  0.00    +0.061 A 
ATOM      5  C   UNL     1       1.550   0.216   1.024  0.00  0.00    +0.018 A 
ATOM      6  C   UNL     1       2.939   0.355   0.993  0.00  0.00    +0.048 A 
ENDROOT
BRANCH   2   7
ATOM      7  N   UNL     1       3.851  -2.243  -1.547  0.00  0.00    -0.355 N 
ATOM      8  H   UNL     1       4.891  -2.167  -1.601  0.00  0.00    +0.142 HD
ATOM      9  H   UNL     1       3.381  -2.950  -2.154  0.00  0.00    +0.142 HD
ENDBRANCH   2   7
BRANCH   4  10
ATOM     10  C   UNL     1      -0.562  -0.874   0.248  0.00  0.00    +0.339 C 
ATOM     11  O   UNL     1      -1.135  -1.727  -0.486  0.00  0.00    -0.245 OA
BRANCH  10  12
ATOM     12  O   UNL     1      -1.319  -0.063   1.104  0.00  0.00    -0.460 OA
BRANCH  12  13
ATOM     13  C   UNL     1      -2.744  -0.089   1.159  0.00  0.00    +0.248 C 
BRANCH  13  14
ATOM     14  C   UNL     1      -3.341   0.658  -0.037  0.00  0.00    +0.125 C 
BRANCH  14  15
ATOM     15  N   UNL     1      -4.821   0.617   0.024  0.00  0.00    -0.300 NA
BRANCH  15  16
ATOM     16  C   UNL     1      -5.355   1.742   0.825  0.00  0.00    +0.081 C 
ATOM     17  C   UNL     1      -6.649   1.327   1.522  0.00  0.00    +0.020 C 
ENDBRANCH  15  16
BRANCH  15  18
ATOM     18  C   UNL     1      -5.413   0.599  -1.334  0.00  0.00    +0.081 C 
ATOM     19  C   UNL     1      -5.496  -0.832  -1.857  0.00  0.00    +0.020 C 
ENDBRANCH  15  18
ENDBRANCH  14  15
ENDBRANCH  13  14
ENDBRANCH  12  13
ENDBRANCH  10  12
ENDBRANCH   4  10
BRANCH   1  20
ATOM     20  O   UNL     1       5.118  -0.338   0.093  0.00  0.00    -0.490 OA
BRANCH  20  21
ATOM     21  C   UNL     1       5.885   0.594   0.853  0.00  0.00    +0.229 C 
BRANCH  21  23
ATOM     22  C   UNL     1       7.677   0.772  -0.925  0.00  0.00    +0.007 C 
ATOM     23  C   UNL     1       7.370   0.430   0.532  0.00  0.00    +0.038 C 
ENDBRANCH  21  23
ENDBRANCH  20  21
ENDBRANCH   1  20
TORSDOF 11
