REMARK  Name = 
REMARK  13 active torsions:
REMARK  status: ('A' for Active; 'I' for Inactive)
REMARK    1  A    between atoms: C_1  and  C_2
REMARK    2  A    between atoms: C_2  and  C_3
REMARK    3  A    between atoms: C_3  and  N_4
REMARK    4  A    between atoms: N_4  and  C_5
REMARK    5  A    between atoms: C_5  and  C_6
REMARK    6  A    between atoms: C_6  and  O_7
REMARK    7  A    between atoms: C_6  and  C_8
REMARK    8  A    between atoms: C_8  and  O_9
REMARK    9  A    between atoms: O_9  and  C_10
REMARK   10  A    between atoms: C_15  and  C_16
REMARK   11  A    between atoms: C_16  and  C_18
REMARK   12  A    between atoms: C_18  and  C_19
REMARK   13  A    between atoms: C_19  and  C_20
REMARK                            x       y       z     vdW  Elec       q    Type
REMARK                         _______ _______ _______ _____ _____    ______ ____
ROOT
ATOM      1  C   UNL     1       0.144  -1.589   0.052  0.00  0.00    +0.131 A 
ATOM      2  C   UNL     1       0.699  -2.840  -0.286  0.00  0.00    +0.046 A 
ATOM      3  C   UNL     1      -0.082  -3.823  -0.894  0.00  0.00    +0.004 A 
ATOM      4  C   UNL     1      -1.424  -3.575  -1.171  0.00  0.00    +0.001 A 
ATOM      5  C   UNL     1      -1.992  -2.344  -0.840  0.00  0.00    +0.015 A 
ATOM      6  C   UNL     1      -1.224  -1.335  -0.224  0.00  0.00    +0.059 A 
ENDROOT
BRANCH   6   7
ATOM      7  C   UNL     1      -1.848  -0.029   0.138  0.00  0.00    +0.167 C 
ATOM      8  O   UNL     1      -1.347   0.673   1.058  0.00  0.00    -0.292 OA
BRANCH   7   9
ATOM      9  C   UNL     1      -3.091   0.481  -0.538  0.00  0.00    +0.084 C 
BRANCH   9  10
ATOM     10  C   UNL     1      -4.337   0.144   0.288  0.00  0.00    +0.043 C 
BRANCH  10  11
ATOM     11  C   UNL     1      -5.583   0.581  -0.434  0.00  0.00    -0.047 A 
ATOM     12  C   UNL     1      -6.109   1.867  -0.229  0.00  0.00    +0.003 A 
ATOM     13  C   UNL     1      -7.246   2.281  -0.929  0.00  0.00    +0.000 A 
ATOM     14  C   UNL     1      -7.858   1.421  -1.847  0.00  0.00    +0.000 A 
ATOM     15  C   UNL     1      -7.332   0.146  -2.066  0.00  0.00    +0.000 A 
ATOM     16  C   UNL     1      -6.196  -0.274  -1.366  0.00  0.00    +0.003 A 
ENDBRANCH  10  11
ENDBRANCH   9  10
ENDBRANCH   7   9
ENDBRANCH   6   7
BRANCH   1  17
ATOM     17  O   UNL     1       0.925  -0.582   0.645  0.00  0.00    -0.489 OA
BRANCH  17  18
ATOM     18  C   UNL     1       2.311  -0.703   0.959  0.00  0.00    +0.261 C 
BRANCH  18  19
ATOM     19  C   UNL     1       2.813   0.601   1.597  0.00  0.00    +0.166 C 
BRANCH  19  20
ATOM     20  O   UNL     1       2.010   0.914   2.707  0.00  0.00    -0.387 OA
ATOM     21  H   UNL     1       1.211   1.395   2.366  0.00  0.00    +0.210 HD
ENDBRANCH  19  20
BRANCH  19  22
ATOM     22  C   UNL     1       4.277   0.487   2.084  0.00  0.00    +0.115 C 
BRANCH  22  23
ATOM     23  N   UNL     1       5.256   0.210   1.019  0.00  0.00    -0.313 NA
ATOM     24  H   UNL     1       5.043  -0.700   0.553  0.00  0.00    +0.122 HD
BRANCH  23  25
ATOM     25  C   UNL     1       5.332   1.282   0.017  0.00  0.00    +0.081 C 
BRANCH  25  27
ATOM     26  C   UNL     1       7.865   1.389   0.094  0.00  0.00    +0.005 C 
ATOM     27  C   UNL     1       6.633   1.171  -0.783  0.00  0.00    +0.012 C 
ENDBRANCH  25  27
ENDBRANCH  23  25
ENDBRANCH  22  23
ENDBRANCH  19  22
ENDBRANCH  18  19
ENDBRANCH  17  18
ENDBRANCH   1  17
TORSDOF 12
