REMARK  Name = 
REMARK  3 active torsions:
REMARK  status: ('A' for Active; 'I' for Inactive)
REMARK    1  A    between atoms: C_1  and  C_2
REMARK    2  A    between atoms: C_2  and  C_3
REMARK    3  A    between atoms: C_3  and  C_4
REMARK                            x       y       z     vdW  Elec       q    Type
REMARK                         _______ _______ _______ _____ _____    ______ ____
ROOT
ATOM      1  C   UNL     1      -0.491  -0.078   0.402  0.00  0.00    +0.023 A 
ATOM      2  C   UNL     1      -1.031  -1.358   0.239  0.00  0.00    +0.091 A 
ATOM      3  C   UNL     1      -2.368  -1.478  -0.135  0.00  0.00    +0.252 A 
ATOM      4  O   UNL     1      -2.880  -2.620  -0.283  0.00  0.00    -0.268 OA
ATOM      5  N   UNL     1      -3.119  -0.363  -0.342  0.00  0.00    -0.303 N 
ATOM      6  C   UNL     1      -2.578   0.879  -0.194  0.00  0.00    +0.158 A 
ATOM      7  S   UNL     1      -3.498   2.210  -0.459  0.00  0.00    -0.013 S 
ATOM      8  N   UNL     1      -1.272   1.015   0.171  0.00  0.00    -0.339 N 
ATOM      9  H   UNL     1      -4.121  -0.466  -0.623  0.00  0.00    +0.171 HD
ATOM     10  H   UNL     1      -0.861   1.972   0.274  0.00  0.00    +0.167 HD
ENDROOT
BRANCH   1  11
ATOM     11  C   UNL     1       0.959   0.092   0.770  0.00  0.00    +0.053 C 
BRANCH  11  13
ATOM     12  C   UNL     1       3.295   0.379  -0.136  0.00  0.00    +0.004 C 
ATOM     13  C   UNL     1       1.822   0.200  -0.490  0.00  0.00    +0.003 C 
ENDBRANCH  11  13
ENDBRANCH   1  11
TORSDOF 2
