REMARK  Name = 
REMARK  13 active torsions:
REMARK  status: ('A' for Active; 'I' for Inactive)
REMARK    1  A    between atoms: C_1  and  C_2
REMARK    2  A    between atoms: C_2  and  C_3
REMARK    3  A    between atoms: C_3  and  O_5
REMARK    4  A    between atoms: O_5  and  C_6
REMARK    5  A    between atoms: C_6  and  C_7
REMARK    6  A    between atoms: C_6  and  C_14
REMARK    7  A    between atoms: C_6  and  C_20
REMARK    8  A    between atoms: C_7  and  C_8
REMARK    9  A    between atoms: C_14  and  C_15
REMARK   10  A    between atoms: C_14  and  C_16
REMARK   11  A    between atoms: C_16  and  N_17
REMARK   12  A    between atoms: N_17  and  C_18
REMARK   13  A    between atoms: N_17  and  C_19
REMARK                            x       y       z     vdW  Elec       q    Type
REMARK                         _______ _______ _______ _____ _____    ______ ____
ROOT
ATOM      1  C   UNL     1       0.399   0.042  -0.787  0.00  0.00    +0.146 C 
ENDROOT
BRANCH   1   2
ATOM      2  C   UNL     1       0.129   0.641  -2.187  0.00  0.00    -0.004 A 
ATOM      3  C   UNL     1       0.456  -0.048  -3.380  0.00  0.00    +0.007 A 
ATOM      4  C   UNL     1       0.177   0.508  -4.631  0.00  0.00    +0.000 A 
ATOM      5  C   UNL     1      -0.443   1.753  -4.724  0.00  0.00    +0.000 A 
ATOM      6  C   UNL     1      -0.795   2.442  -3.565  0.00  0.00    +0.000 A 
ATOM      7  C   UNL     1      -0.519   1.893  -2.310  0.00  0.00    +0.007 A 
ENDBRANCH   1   2
BRANCH   1   8
ATOM      8  C   UNL     1      -0.809  -0.899  -0.383  0.00  0.00    +0.049 C 
ATOM      9  C   UNL     1      -1.049  -2.072  -1.359  0.00  0.00    +0.013 C 
BRANCH   8  10
ATOM     10  C   UNL     1      -2.136  -0.110  -0.205  0.00  0.00    +0.091 C 
BRANCH  10  11
ATOM     11  N   UNL     1      -3.181  -0.952   0.423  0.00  0.00    -0.308 NA
ATOM     12  C   UNL     1      -3.088  -0.905   1.893  0.00  0.00    +0.104 C 
ATOM     13  C   UNL     1      -4.519  -0.506   0.004  0.00  0.00    +0.104 C 
ENDBRANCH  10  11
ENDBRANCH   8  10
ENDBRANCH   1   8
BRANCH   1  14
ATOM     14  O   UNL     1       0.514   1.168   0.114  0.00  0.00    -0.453 OA
BRANCH  14  15
ATOM     15  C   UNL     1       0.427   1.197   1.517  0.00  0.00    +0.308 C 
ATOM     16  O   UNL     1       0.276   0.149   2.198  0.00  0.00    -0.251 OA
BRANCH  15  18
ATOM     17  C   UNL     1       2.003   2.855   2.483  0.00  0.00    +0.015 C 
ATOM     18  C   UNL     1       0.542   2.513   2.217  0.00  0.00    +0.117 C 
ENDBRANCH  15  18
ENDBRANCH  14  15
ENDBRANCH   1  14
BRANCH   1  19
ATOM     19  C   UNL     1       1.782  -0.701  -0.803  0.00  0.00    +0.088 C 
BRANCH  19  20
ATOM     20  C   UNL     1       2.313  -1.127   0.544  0.00  0.00    -0.043 A 
ATOM     21  C   UNL     1       3.226  -0.311   1.236  0.00  0.00    +0.004 A 
ATOM     22  C   UNL     1       3.721  -0.704   2.483  0.00  0.00    +0.000 A 
ATOM     23  C   UNL     1       3.321  -1.919   3.044  0.00  0.00    +0.000 A 
ATOM     24  C   UNL     1       2.432  -2.748   2.354  0.00  0.00    +0.000 A 
ATOM     25  C   UNL     1       1.934  -2.358   1.107  0.00  0.00    +0.004 A 
ENDBRANCH  19  20
ENDBRANCH   1  19
TORSDOF 9
