REMARK  Name = 
REMARK  9 active torsions:
REMARK  status: ('A' for Active; 'I' for Inactive)
REMARK    1  A    between atoms: C_1  and  C_2
REMARK    2  A    between atoms: C_2  and  C_3
REMARK    3  A    between atoms: C_3  and  C_5
REMARK    4  A    between atoms: N_16  and  C_17
REMARK    5  A    between atoms: C_17  and  C_18
REMARK    6  A    between atoms: C_18  and  C_19
REMARK    7  A    between atoms: C_18  and  N_20
REMARK    8  A    between atoms: N_20  and  C_21
REMARK    9  A    between atoms: N_20  and  C_22
REMARK                            x       y       z     vdW  Elec       q    Type
REMARK                         _______ _______ _______ _____ _____    ______ ____
ROOT
ATOM      1  C   UNL     1       2.933   0.251  -0.516  0.00  0.00    +0.019 A 
ATOM      2  C   UNL     1       1.795   0.050   0.291  0.00  0.00    +0.036 A 
ATOM      3  C   UNL     1       0.515   0.386  -0.177  0.00  0.00    +0.049 A 
ATOM      4  C   UNL     1       0.371   0.935  -1.463  0.00  0.00    +0.034 A 
ATOM      5  S   UNL     1      -1.276   1.254  -2.106  0.00  0.00    -0.086 S 
ATOM      6  C   UNL     1      -1.833   2.043  -0.592  0.00  0.00    +0.034 A 
ATOM      7  C   UNL     1      -2.579   3.224  -0.644  0.00  0.00    +0.017 A 
ATOM      8  C   UNL     1      -3.074   3.789   0.534  0.00  0.00    +0.001 A 
ATOM      9  C   UNL     1      -2.813   3.182   1.766  0.00  0.00    +0.002 A 
ATOM     10  C   UNL     1      -2.046   2.014   1.825  0.00  0.00    +0.024 A 
ATOM     11  C   UNL     1      -1.556   1.431   0.645  0.00  0.00    +0.048 A 
ATOM     12  N   UNL     1      -0.637   0.321   0.691  0.00  0.00    -0.297 N 
ATOM     13  C   UNL     1       1.494   1.166  -2.258  0.00  0.00    +0.017 A 
ATOM     14  C   UNL     1       2.765   0.823  -1.793  0.00  0.00    +0.012 A 
ENDROOT
BRANCH   1  15
ATOM     15  C   UNL     1       4.282  -0.115  -0.004  0.00  0.00    +0.163 C 
ATOM     16  O   UNL     1       4.414  -0.431   1.212  0.00  0.00    -0.292 OA
BRANCH  15  18
ATOM     17  C   UNL     1       6.723  -0.747  -0.269  0.00  0.00    +0.012 C 
ATOM     18  C   UNL     1       5.498  -0.087  -0.900  0.00  0.00    +0.076 C 
ENDBRANCH  15  18
ENDBRANCH   1  15
BRANCH  12  19
ATOM     19  C   UNL     1      -0.960  -0.904   1.444  0.00  0.00    +0.129 C 
BRANCH  19  20
ATOM     20  C   UNL     1      -1.721  -1.939   0.571  0.00  0.00    +0.071 C 
ATOM     21  C   UNL     1      -0.733  -2.581  -0.432  0.00  0.00    +0.026 C 
BRANCH  20  22
ATOM     22  N   UNL     1      -2.905  -1.316  -0.096  0.00  0.00    -0.304 NA
ATOM     23  C   UNL     1      -3.471  -2.163  -1.166  0.00  0.00    +0.104 C 
ATOM     24  C   UNL     1      -3.977  -1.042   0.883  0.00  0.00    +0.104 C 
ENDBRANCH  20  22
ENDBRANCH  19  20
ENDBRANCH  12  19
TORSDOF 5
