REMARK  Name = 
REMARK  6 active torsions:
REMARK  status: ('A' for Active; 'I' for Inactive)
REMARK    1  A    between atoms: O_1  and  C_2
REMARK    2  A    between atoms: N_5  and  C_6
REMARK    3  A    between atoms: C_6  and  C_7
REMARK    4  A    between atoms: C_7  and  C_8
REMARK    5  A    between atoms: C_8  and  N_9
REMARK    6  A    between atoms: C_20  and  C_23
REMARK                            x       y       z     vdW  Elec       q    Type
REMARK                         _______ _______ _______ _____ _____    ______ ____
ROOT
ATOM      1  N   UNL     1      -1.901  -0.772   0.057  0.00  0.00    -0.298 N 
ATOM      2  C   UNL     1      -3.007  -1.343   0.795  0.00  0.00    +0.048 A 
ATOM      3  C   UNL     1      -2.840  -1.829   2.104  0.00  0.00    +0.024 A 
ATOM      4  C   UNL     1      -3.949  -2.223   2.858  0.00  0.00    +0.002 A 
ATOM      5  C   UNL     1      -5.235  -2.123   2.323  0.00  0.00    +0.001 A 
ATOM      6  C   UNL     1      -5.415  -1.645   1.023  0.00  0.00    +0.017 A 
ATOM      7  C   UNL     1      -4.307  -1.272   0.256  0.00  0.00    +0.034 A 
ATOM      8  S   UNL     1      -4.529  -0.797  -1.459  0.00  0.00    -0.086 S 
ATOM      9  C   UNL     1      -3.407   0.596  -1.335  0.00  0.00    +0.034 A 
ATOM     10  C   UNL     1      -2.154   0.422  -0.719  0.00  0.00    +0.049 A 
ATOM     11  C   UNL     1      -1.216   1.468  -0.773  0.00  0.00    +0.043 A 
ATOM     12  C   UNL     1      -1.538   2.677  -1.403  0.00  0.00    +0.054 A 
ATOM     13  C   UNL     1      -2.804   2.853  -1.973  0.00  0.00    +0.020 A 
ATOM     14  C   UNL     1      -3.737   1.813  -1.940  0.00  0.00    +0.018 A 
ENDROOT
BRANCH  12  15
ATOM     15  C   UNL     1      -0.572   3.744  -1.446  0.00  0.00    +0.099 C 
ATOM     16  N   UNL     1       0.205   4.600  -1.481  0.00  0.00    -0.191 NA
ENDBRANCH  12  15
BRANCH   1  17
ATOM     17  C   UNL     1      -0.606  -1.465  -0.042  0.00  0.00    +0.112 C 
BRANCH  17  18
ATOM     18  C   UNL     1       0.363  -1.054   1.085  0.00  0.00    +0.035 C 
BRANCH  18  19
ATOM     19  C   UNL     1       1.829  -1.111   0.636  0.00  0.00    +0.086 C 
BRANCH  19  23
ATOM     20  C   UNL     1       4.959   0.664  -0.486  0.00  0.00    +0.117 C 
ATOM     21  C   UNL     1       4.429  -0.658  -1.044  0.00  0.00    +0.046 C 
ATOM     22  C   UNL     1       2.965  -0.505  -1.475  0.00  0.00    +0.087 C 
ATOM     23  N   UNL     1       2.104  -0.053  -0.362  0.00  0.00    -0.302 NA
ATOM     24  C   UNL     1       2.590   1.212   0.237  0.00  0.00    +0.087 C 
ATOM     25  C   UNL     1       4.067   1.145   0.666  0.00  0.00    +0.046 C 
BRANCH  20  26
ATOM     26  O   UNL     1       6.274   0.479  -0.030  0.00  0.00    -0.392 OA
ATOM     27  H   UNL     1       6.668   1.383   0.080  0.00  0.00    +0.210 HD
ENDBRANCH  20  26
ENDBRANCH  19  23
ENDBRANCH  18  19
ENDBRANCH  17  18
ENDBRANCH   1  17
TORSDOF 6
