REMARK  Name = 
REMARK  5 active torsions:
REMARK  status: ('A' for Active; 'I' for Inactive)
REMARK    1  A    between atoms: C_1  and  N_2
REMARK    2  A    between atoms: N_2  and  C_3
REMARK    3  A    between atoms: C_3  and  C_4
REMARK    4  A    between atoms: C_4  and  C_5
REMARK    5  A    between atoms: C_5  and  C_6
REMARK                            x       y       z     vdW  Elec       q    Type
REMARK                         _______ _______ _______ _____ _____    ______ ____
ROOT
ATOM      1  C   UNL     1      -0.416   0.319  -0.289  0.00  0.00    +0.050 C 
ATOM      2  C   UNL     1      -1.629   1.181   0.011  0.00  0.00    -0.033 A 
ATOM      3  C   UNL     1      -1.687   2.025   1.142  0.00  0.00    +0.005 A 
ATOM      4  C   UNL     1      -2.807   2.826   1.374  0.00  0.00    +0.000 A 
ATOM      5  C   UNL     1      -3.887   2.791   0.495  0.00  0.00    +0.001 A 
ATOM      6  C   UNL     1      -3.865   1.936  -0.606  0.00  0.00    +0.008 A 
ATOM      7  C   UNL     1      -2.760   1.101  -0.842  0.00  0.00    -0.021 A 
ATOM      8  C   UNL     1      -2.824   0.182  -2.007  0.00  0.00    +0.009 C 
ATOM      9  C   UNL     1      -2.358  -1.079  -2.029  0.00  0.00    +0.009 C 
ATOM     10  C   UNL     1      -1.711  -1.773  -0.886  0.00  0.00    -0.021 A 
ATOM     11  C   UNL     1      -2.023  -3.127  -0.683  0.00  0.00    +0.008 A 
ATOM     12  C   UNL     1      -1.501  -3.821   0.409  0.00  0.00    +0.001 A 
ATOM     13  C   UNL     1      -0.664  -3.170   1.312  0.00  0.00    +0.000 A 
ATOM     14  C   UNL     1      -0.318  -1.833   1.111  0.00  0.00    +0.005 A 
ATOM     15  C   UNL     1      -0.795  -1.128  -0.016  0.00  0.00    -0.033 A 
ENDROOT
BRANCH   1  16
ATOM     16  C   UNL     1       0.908   0.816   0.352  0.00  0.00    +0.014 C 
BRANCH  16  17
ATOM     17  C   UNL     1       2.139   0.092  -0.219  0.00  0.00    +0.016 C 
BRANCH  17  18
ATOM     18  C   UNL     1       3.429   0.603   0.428  0.00  0.00    +0.080 C 
BRANCH  18  20
ATOM     19  C   UNL     1       5.809   0.290   0.565  0.00  0.00    +0.101 C 
ATOM     20  N   UNL     1       4.583  -0.115  -0.124  0.00  0.00    -0.319 NA
ATOM     21  H   UNL     1       4.686   0.157  -1.130  0.00  0.00    +0.122 HD
ENDBRANCH  18  20
ENDBRANCH  17  18
ENDBRANCH  16  17
ENDBRANCH   1  16
TORSDOF 4
