REMARK  Name = 
REMARK  6 active torsions:
REMARK  status: ('A' for Active; 'I' for Inactive)
REMARK    1  A    between atoms: C_1  and  N_2
REMARK    2  A    between atoms: N_2  and  C_3
REMARK    3  A    between atoms: C_3  and  C_4
REMARK    4  A    between atoms: C_3  and  C_5
REMARK    5  A    between atoms: C_5  and  O_6
REMARK    6  A    between atoms: C_5  and  C_7
REMARK                            x       y       z     vdW  Elec       q    Type
REMARK                         _______ _______ _______ _____ _____    ______ ____
ROOT
ATOM      1  C   UNL     1       0.005  -0.244  -1.338  0.00  0.00    +0.161 C 
ENDROOT
BRANCH   1   2
ATOM      2  C   UNL     1       1.200  -0.133  -0.407  0.00  0.00    -0.018 A 
ATOM      3  C   UNL     1       1.938  -1.287  -0.084  0.00  0.00    +0.006 A 
ATOM      4  C   UNL     1       3.019  -1.214   0.800  0.00  0.00    +0.000 A 
ATOM      5  C   UNL     1       3.367   0.007   1.382  0.00  0.00    +0.000 A 
ATOM      6  C   UNL     1       2.632   1.157   1.084  0.00  0.00    +0.000 A 
ATOM      7  C   UNL     1       1.551   1.090   0.200  0.00  0.00    +0.006 A 
ENDBRANCH   1   2
BRANCH   1   8
ATOM      8  C   UNL     1      -1.316  -0.448  -0.550  0.00  0.00    +0.083 C 
ATOM      9  C   UNL     1      -2.497  -0.669  -1.512  0.00  0.00    +0.027 C 
BRANCH   8  11
ATOM     10  C   UNL     1      -2.281   0.285   1.566  0.00  0.00    +0.101 C 
ATOM     11  N   UNL     1      -1.560   0.692   0.358  0.00  0.00    -0.314 NA
ATOM     12  H   UNL     1      -2.122   1.432  -0.124  0.00  0.00    +0.122 HD
ENDBRANCH   8  11
ENDBRANCH   1   8
BRANCH   1  13
ATOM     13  O   UNL     1      -0.050   0.843  -2.234  0.00  0.00    -0.386 OA
ATOM     14  H   UNL     1      -0.410   1.632  -1.755  0.00  0.00    +0.210 HD
ENDBRANCH   1  13
TORSDOF 4
