REMARK  Name = 
REMARK  1 active torsions:
REMARK  status: ('A' for Active; 'I' for Inactive)
REMARK    1  A    between atoms: C_2  and  C_4
REMARK                            x       y       z     vdW  Elec       q    Type
REMARK                         _______ _______ _______ _____ _____    ______ ____
ROOT
ATOM      1  C   UNL     1      -0.231  -0.279   0.150  0.00  0.00    +0.143 A 
ATOM      2  N   UNL     1       0.176   0.901  -0.395  0.00  0.00    -0.247 NA
ATOM      3  C   UNL     1       1.478   1.127  -0.714  0.00  0.00    +0.131 A 
ATOM      4  C   UNL     1       2.424   0.129  -0.478  0.00  0.00    +0.130 A 
ATOM      5  N   UNL     1       2.028  -1.051   0.066  0.00  0.00    -0.259 NA
ATOM      6  C   UNL     1       0.726  -1.279   0.385  0.00  0.00    +0.143 A 
ENDROOT
BRANCH   1   8
ATOM      7  N   UNL     1      -2.621   0.541   0.238  0.00  0.00    -0.324 N 
ATOM      8  C   UNL     1      -1.657  -0.485   0.483  0.00  0.00    +0.261 C 
ATOM      9  O   UNL     1      -2.037  -1.576   0.988  0.00  0.00    -0.269 OA
ATOM     10  H   UNL     1      -2.346   1.458  -0.178  0.00  0.00    +0.145 HD
ATOM     11  H   UNL     1      -3.625   0.383   0.477  0.00  0.00    +0.145 HD
ENDBRANCH   1   8
TORSDOF 1
