REMARK  Name = 
REMARK  5 active torsions:
REMARK  status: ('A' for Active; 'I' for Inactive)
REMARK    1  A    between atoms: C_1  and  C_2
REMARK    2  A    between atoms: C_5  and  C_6
REMARK    3  A    between atoms: C_6  and  O_7
REMARK    4  A    between atoms: C_8  and  C_9
REMARK    5  A    between atoms: C_11  and  O_12
REMARK                            x       y       z     vdW  Elec       q    Type
REMARK                         _______ _______ _______ _____ _____    ______ ____
ROOT
ATOM      1  C   UNL     1       3.035  -0.043  -1.030  0.00  0.00    +0.069 C 
ATOM      2  C   UNL     1       1.604  -0.187  -0.606  0.00  0.00    +0.080 A 
ATOM      3  N   UNL     1       1.028  -1.413  -0.677  0.00  0.00    -0.256 NA
ATOM      4  C   UNL     1      -0.258  -1.634  -0.313  0.00  0.00    +0.117 A 
ATOM      5  C   UNL     1      -1.055  -0.585   0.177  0.00  0.00    +0.010 A 
ATOM      6  C   UNL     1      -0.500   0.721   0.231  0.00  0.00    +0.064 A 
ATOM      7  C   UNL     1       0.847   0.916  -0.159  0.00  0.00    +0.148 A 
ENDROOT
BRANCH   6   8
ATOM      8  C   UNL     1      -1.332   1.876   0.664  0.00  0.00    +0.262 C 
ATOM      9  O   UNL     1      -0.814   2.973   1.004  0.00  0.00    -0.296 OA
ENDBRANCH   6   8
BRANCH   7  10
ATOM     10  O   UNL     1       1.408   2.196  -0.112  0.00  0.00    -0.504 OA
ATOM     11  H   UNL     1       2.361   2.397  -0.385  0.00  0.00    +0.292 HD
ENDBRANCH   7  10
BRANCH   5  12
ATOM     12  C   UNL     1      -2.491  -0.853   0.594  0.00  0.00    +0.193 C 
BRANCH  12  13
ATOM     13  O   UNL     1      -2.754  -2.221   0.763  0.00  0.00    -0.390 OA
ATOM     14  H   UNL     1      -2.332  -2.488   1.621  0.00  0.00    +0.210 HD
ENDBRANCH  12  13
ENDBRANCH   5  12
TORSDOF 4
