REMARK  Name = 
REMARK  3 active torsions:
REMARK  status: ('A' for Active; 'I' for Inactive)
REMARK    1  A    between atoms: C_1  and  C_2
REMARK    2  A    between atoms: C_2  and  C_3
REMARK    3  A    between atoms: C_4  and  C_11
REMARK                            x       y       z     vdW  Elec       q    Type
REMARK                         _______ _______ _______ _____ _____    ______ ____
ROOT
ATOM      1  C   UNL     1      -1.353   0.580   0.054  0.00  0.00    +0.056 A 
ATOM      2  C   UNL     1      -0.433  -0.493   0.005  0.00  0.00    +0.043 A 
ATOM      3  C   UNL     1      -0.882  -1.769   0.406  0.00  0.00    +0.129 A 
ATOM      4  N   UNL     1      -0.023  -2.914   0.368  0.00  0.00    -0.343 N 
ATOM      5  N   UNL     1      -2.163  -1.927   0.831  0.00  0.00    -0.199 NA
ATOM      6  C   UNL     1      -3.027  -0.883   0.880  0.00  0.00    +0.214 A 
ATOM      7  N   UNL     1      -4.363  -1.083   1.335  0.00  0.00    -0.327 N 
ATOM      8  N   UNL     1      -2.618   0.353   0.499  0.00  0.00    -0.219 NA
ATOM      9  H   UNL     1       0.958  -2.864   0.015  0.00  0.00    +0.144 HD
ATOM     10  H   UNL     1      -0.382  -3.843   0.682  0.00  0.00    +0.144 HD
ATOM     11  H   UNL     1      -5.033  -0.283   1.377  0.00  0.00    +0.145 HD
ATOM     12  H   UNL     1      -4.684  -2.032   1.632  0.00  0.00    +0.145 HD
ENDROOT
BRANCH   2  13
ATOM     13  C   UNL     1       0.960  -0.290  -0.444  0.00  0.00    -0.013 A 
ATOM     14  C   UNL     1       1.998  -0.214   0.496  0.00  0.00    +0.010 A 
ATOM     15  C   UNL     1       3.318  -0.029   0.071  0.00  0.00    +0.020 A 
ATOM     16  C   UNL     1       3.607   0.075  -1.294  0.00  0.00    +0.041 A 
ATOM     17 CL   UNL     1       5.262   0.306  -1.825  0.00  0.00    -0.084 Cl
ATOM     18  C   UNL     1       2.574  -0.009  -2.235  0.00  0.00    +0.020 A 
ATOM     19  C   UNL     1       1.254  -0.193  -1.812  0.00  0.00    +0.010 A 
ENDBRANCH   2  13
BRANCH   1  21
ATOM     20  C   UNL     1      -0.370   2.712   0.905  0.00  0.00    +0.010 C 
ATOM     21  C   UNL     1      -0.970   1.994  -0.299  0.00  0.00    +0.053 C 
ENDBRANCH   1  21
TORSDOF 2
