REMARK  Name = 
REMARK  6 active torsions:
REMARK  status: ('A' for Active; 'I' for Inactive)
REMARK    1  A    between atoms: C_1  and  C_2
REMARK    2  A    between atoms: C_5  and  C_6
REMARK    3  A    between atoms: C_6  and  O_7
REMARK    4  A    between atoms: C_8  and  C_9
REMARK    5  A    between atoms: C_9  and  O_10
REMARK    6  A    between atoms: C_11  and  O_12
REMARK                            x       y       z     vdW  Elec       q    Type
REMARK                         _______ _______ _______ _____ _____    ______ ____
ROOT
ATOM      1  C   UNL     1       3.363  -0.470   0.555  0.00  0.00    +0.069 C 
ATOM      2  C   UNL     1       1.978   0.026   0.272  0.00  0.00    +0.080 A 
ATOM      3  N   UNL     1       1.745   1.362   0.252  0.00  0.00    -0.256 NA
ATOM      4  C   UNL     1       0.510   1.876   0.033  0.00  0.00    +0.117 A 
ATOM      5  C   UNL     1      -0.592   1.031  -0.181  0.00  0.00    +0.005 A 
ATOM      6  C   UNL     1      -0.367  -0.371  -0.252  0.00  0.00    +0.028 A 
ATOM      7  C   UNL     1       0.926  -0.874   0.041  0.00  0.00    +0.143 A 
ENDROOT
BRANCH   7   8
ATOM      8  O   UNL     1       1.192  -2.245   0.117  0.00  0.00    -0.505 OA
ATOM      9  H   UNL     1       0.477  -2.959   0.080  0.00  0.00    +0.292 HD
ENDBRANCH   7   8
BRANCH   5  10
ATOM     10  C   UNL     1      -1.968   1.634  -0.402  0.00  0.00    +0.193 C 
BRANCH  10  11
ATOM     11  O   UNL     1      -2.076   2.918   0.154  0.00  0.00    -0.390 OA
ATOM     12  H   UNL     1      -2.121   2.798   1.139  0.00  0.00    +0.210 HD
ENDBRANCH  10  11
ENDBRANCH   5  10
BRANCH   6  13
ATOM     13  C   UNL     1      -1.486  -1.324  -0.613  0.00  0.00    +0.195 C 
BRANCH  13  14
ATOM     14  O   UNL     1      -2.073  -1.821   0.557  0.00  0.00    -0.390 OA
ATOM     15  H   UNL     1      -2.785  -2.447   0.265  0.00  0.00    +0.210 HD
ENDBRANCH  13  14
ENDBRANCH   6  13
TORSDOF 5
