REMARK  Name = 
REMARK  5 active torsions:
REMARK  status: ('A' for Active; 'I' for Inactive)
REMARK    1  A    between atoms: C_1  and  N_2
REMARK    2  A    between atoms: N_2  and  C_3
REMARK    3  A    between atoms: C_4  and  O_6
REMARK    4  A    between atoms: O_6  and  C_7
REMARK    5  A    between atoms: N_9  and  C_10
REMARK                            x       y       z     vdW  Elec       q    Type
REMARK                         _______ _______ _______ _____ _____    ______ ____
ROOT
ATOM      1  C   UNL     1       0.576  -0.795   0.330  0.00  0.00    +0.149 A 
ATOM      2  C   UNL     1       1.453   0.261   0.021  0.00  0.00    +0.132 A 
ATOM      3  N   UNL     1       2.797   0.136   0.240  0.00  0.00    -0.353 N 
ATOM      4  C   UNL     1       3.695   1.235  -0.122  0.00  0.00    +0.148 C 
ATOM      5  C   UNL     1       3.319  -1.032   0.721  0.00  0.00    +0.085 A 
ATOM      6  C   UNL     1       2.484  -2.109   1.020  0.00  0.00    +0.021 A 
ATOM      7  C   UNL     1       1.110  -1.988   0.820  0.00  0.00    +0.049 A 
ENDROOT
BRANCH   1   8
ATOM      8  O   UNL     1      -0.808  -0.712   0.123  0.00  0.00    -0.410 OA
BRANCH   8  12
ATOM      9  C   UNL     1      -3.439  -0.740  -0.970  0.00  0.00    +0.135 C 
ATOM     10  N   UNL     1      -2.906   0.474  -0.348  0.00  0.00    -0.273 N 
ATOM     11  C   UNL     1      -3.715   1.693  -0.267  0.00  0.00    +0.135 C 
ATOM     12  C   UNL     1      -1.569   0.464   0.182  0.00  0.00    +0.408 C 
ATOM     13  O   UNL     1      -1.107   1.497   0.741  0.00  0.00    -0.226 OA
ENDBRANCH   8  12
ENDBRANCH   1   8
TORSDOF 2
