REMARK  Name = 
REMARK  3 active torsions:
REMARK  status: ('A' for Active; 'I' for Inactive)
REMARK    1  A    between atoms: C_1  and  C_2
REMARK    2  A    between atoms: C_2  and  C_4
REMARK    3  A    between atoms: C_4  and  O_5
REMARK                            x       y       z     vdW  Elec       q    Type
REMARK                         _______ _______ _______ _____ _____    ______ ____
ROOT
ATOM      1  C   UNL     1       1.066   0.032  -0.101  0.00  0.00    +0.372 C 
ATOM      2  O   UNL     1       1.184  -0.215  -1.331  0.00  0.00    -0.242 OA
ENDROOT
BRANCH   1   4
ATOM      3  C   UNL     1      -1.502  -0.135  -0.289  0.00  0.00    +0.099 C 
ATOM      4  C   UNL     1      -0.265   0.094   0.521  0.00  0.00    +0.236 C 
ATOM      5  O   UNL     1      -0.364   0.343   1.752  0.00  0.00    -0.285 OA
ENDBRANCH   1   4
BRANCH   1   6
ATOM      6  O   UNL     1       2.202   0.249   0.673  0.00  0.00    -0.475 OA
ATOM      7  H   UNL     1       3.127   0.210   0.261  0.00  0.00    +0.295 HD
ENDBRANCH   1   6
TORSDOF 2
