REMARK  Name = 
REMARK  3 active torsions:
REMARK  status: ('A' for Active; 'I' for Inactive)
REMARK    1  A    between atoms: C_7  and  C_8
REMARK    2  A    between atoms: N_13  and  C_14
REMARK    3  A    between atoms: C_14  and  C_15
REMARK                            x       y       z     vdW  Elec       q    Type
REMARK                         _______ _______ _______ _____ _____    ______ ____
ROOT
ATOM      1  C   UNL     1       0.689   0.793  -0.069  0.00  0.00    +0.078 C 
ATOM      2  N   UNL     1       0.307   1.997   0.255  0.00  0.00    -0.276 NA
ATOM      3  C   UNL     1      -0.841   2.698  -0.313  0.00  0.00    +0.201 C 
ATOM      4  C   UNL     1      -2.108   2.006   0.090  0.00  0.00    +0.077 C 
ATOM      5  S   UNL     1      -3.380   2.918   0.591  0.00  0.00    -0.038 S 
ATOM      6  N   UNL     1      -2.252   0.582  -0.110  0.00  0.00    -0.287 N 
ATOM      7  C   UNL     1      -1.452  -0.082  -1.110  0.00  0.00    +0.044 A 
ATOM      8  C   UNL     1      -0.039   0.012  -1.107  0.00  0.00    +0.023 A 
ATOM      9  C   UNL     1       0.697  -0.651  -2.106  0.00  0.00    +0.032 A 
ATOM     10  C   UNL     1       0.047  -1.401  -3.090  0.00  0.00    +0.042 A 
ATOM     11 CL   UNL     1       0.980  -2.224  -4.326  0.00  0.00    -0.084 Cl
ATOM     12  C   UNL     1      -1.345  -1.492  -3.091  0.00  0.00    +0.022 A 
ATOM     13  C   UNL     1      -2.090  -0.835  -2.110  0.00  0.00    +0.025 A 
ENDROOT
BRANCH   1  20
ATOM     14  F   UNL     1       1.043  -2.010   0.557  0.00  0.00    -0.205 F 
ATOM     15  C   UNL     1       2.040  -1.139   0.852  0.00  0.00    +0.133 A 
ATOM     16  C   UNL     1       3.199  -1.629   1.464  0.00  0.00    +0.039 A 
ATOM     17  C   UNL     1       4.231  -0.758   1.817  0.00  0.00    +0.003 A 
ATOM     18  C   UNL     1       4.108   0.609   1.564  0.00  0.00    +0.001 A 
ATOM     19  C   UNL     1       2.954   1.108   0.953  0.00  0.00    +0.013 A 
ATOM     20  C   UNL     1       1.909   0.241   0.580  0.00  0.00    +0.036 A 
ENDBRANCH   1  20
BRANCH   6  21
ATOM     21  C   UNL     1      -3.143  -0.221   0.746  0.00  0.00    +0.224 C 
BRANCH  21  22
ATOM     22  C   UNL     1      -2.506  -0.475   2.113  0.00  0.00    +0.406 C 
ATOM     23  F   UNL     1      -3.351  -1.264   2.873  0.00  0.00    -0.169 F 
ATOM     24  F   UNL     1      -2.293   0.719   2.777  0.00  0.00    -0.169 F 
ATOM     25  F   UNL     1      -1.299  -1.131   1.959  0.00  0.00    -0.169 F 
ENDBRANCH  21  22
ENDBRANCH   6  21
TORSDOF 3
