REMARK  Name = 
REMARK  6 active torsions:
REMARK  status: ('A' for Active; 'I' for Inactive)
REMARK    1  A    between atoms: O_1  and  C_2
REMARK    2  A    between atoms: C_2  and  C_3
REMARK    3  A    between atoms: C_3  and  O_4
REMARK    4  A    between atoms: O_4  and  C_5
REMARK    5  A    between atoms: C_5  and  C_6
REMARK    6  A    between atoms: C_6  and  N_7
REMARK                            x       y       z     vdW  Elec       q    Type
REMARK                         _______ _______ _______ _____ _____    ______ ____
ROOT
ATOM      1  N   UNL     1       2.437   1.170  -0.794  0.00  0.00    -0.297 NA
ATOM      2  C   UNL     1       1.829  -0.131  -1.125  0.00  0.00    +0.103 C 
ATOM      3  C   UNL     1       0.359   0.069  -1.500  0.00  0.00    +0.122 C 
ATOM      4  N   UNL     1      -0.329   0.825  -0.445  0.00  0.00    -0.312 N 
ATOM      5  C   UNL     1       0.309   2.051   0.056  0.00  0.00    +0.122 C 
ATOM      6  C   UNL     1       1.780   1.780   0.378  0.00  0.00    +0.103 C 
ATOM      7  C   UNL     1      -1.692   0.513  -0.087  0.00  0.00    +0.130 C 
ATOM      8  N   UNL     1      -2.095   0.768   1.131  0.00  0.00    -0.231 NA
ATOM      9  C   UNL     1      -3.400   0.529   1.688  0.00  0.00    +0.080 A 
ATOM     10  C   UNL     1      -3.997   1.534   2.461  0.00  0.00    +0.029 A 
ATOM     11  C   UNL     1      -5.278   1.351   2.990  0.00  0.00    +0.002 A 
ATOM     12  C   UNL     1      -5.966   0.157   2.761  0.00  0.00    +0.001 A 
ATOM     13  C   UNL     1      -5.367  -0.865   2.021  0.00  0.00    +0.017 A 
ATOM     14  C   UNL     1      -4.078  -0.694   1.503  0.00  0.00    +0.038 A 
ATOM     15  S   UNL     1      -3.291  -2.043   0.630  0.00  0.00    -0.087 S 
ATOM     16  C   UNL     1      -3.421  -1.141  -0.908  0.00  0.00    +0.023 A 
ATOM     17  C   UNL     1      -4.329  -1.567  -1.884  0.00  0.00    +0.016 A 
ATOM     18  C   UNL     1      -4.429  -0.878  -3.095  0.00  0.00    +0.001 A 
ATOM     19  C   UNL     1      -3.628   0.240  -3.332  0.00  0.00    +0.001 A 
ATOM     20  C   UNL     1      -2.731   0.680  -2.354  0.00  0.00    +0.012 A 
ATOM     21  C   UNL     1      -2.624  -0.001  -1.129  0.00  0.00    +0.029 A 
ENDROOT
BRANCH   1  22
ATOM     22  C   UNL     1       3.913   1.129  -0.686  0.00  0.00    +0.112 C 
BRANCH  22  23
ATOM     23  C   UNL     1       4.465   0.164   0.381  0.00  0.00    +0.175 C 
BRANCH  23  24
ATOM     24  O   UNL     1       4.389  -1.168  -0.087  0.00  0.00    -0.376 OA
BRANCH  24  25
ATOM     25  C   UNL     1       4.998  -2.056   0.831  0.00  0.00    +0.187 C 
BRANCH  25  26
ATOM     26  C   UNL     1       6.430  -2.368   0.392  0.00  0.00    +0.184 C 
BRANCH  26  27
ATOM     27  O   UNL     1       6.996  -3.336   1.233  0.00  0.00    -0.393 OA
ATOM     28  H   UNL     1       7.236  -2.873   2.078  0.00  0.00    +0.209 HD
ENDBRANCH  26  27
ENDBRANCH  25  26
ENDBRANCH  24  25
ENDBRANCH  23  24
ENDBRANCH  22  23
ENDBRANCH   1  22
TORSDOF 6
