REMARK  Name = 
REMARK  9 active torsions:
REMARK  status: ('A' for Active; 'I' for Inactive)
REMARK    1  A    between atoms: C_1  and  C_2
REMARK    2  A    between atoms: C_2  and  C_3
REMARK    3  A    between atoms: C_3  and  C_12
REMARK    4  A    between atoms: C_18  and  O_19
REMARK    5  A    between atoms: O_19  and  C_20
REMARK    6  A    between atoms: C_23  and  C_30
REMARK    7  A    between atoms: C_30  and  O_31
REMARK    8  A    between atoms: C_30  and  C_32
REMARK    9  A    between atoms: C_39  and  C_40
REMARK                            x       y       z     vdW  Elec       q    Type
REMARK                         _______ _______ _______ _____ _____    ______ ____
ROOT
ATOM      1  C   UNL     1      -0.913   0.046  -0.248  0.00  0.00    +0.148 C 
ATOM      2  C   UNL     1      -1.145   1.132  -1.302  0.00  0.00    +0.240 C 
ATOM      3  O   UNL     1      -1.289   0.832  -2.519  0.00  0.00    -0.274 OA
ATOM      4  N   UNL     1      -1.109   2.515  -0.936  0.00  0.00    -0.239 N 
ATOM      5  C   UNL     1      -1.272   2.899   0.427  0.00  0.00    +0.312 C 
ATOM      6  O   UNL     1      -1.198   4.112   0.757  0.00  0.00    -0.252 OA
ATOM      7  N   UNL     1      -1.565   1.905   1.406  0.00  0.00    -0.239 N 
ATOM      8  C   UNL     1      -1.601   0.522   1.038  0.00  0.00    +0.240 C 
ATOM      9  O   UNL     1      -2.145  -0.297   1.826  0.00  0.00    -0.274 OA
ATOM     10  H   UNL     1      -1.042   3.249  -1.677  0.00  0.00    +0.159 HD
ATOM     11  H   UNL     1      -1.828   2.193   2.375  0.00  0.00    +0.159 HD
ENDROOT
BRANCH   1  12
ATOM     12  C   UNL     1       0.607  -0.111  -0.055  0.00  0.00    -0.024 A 
ATOM     13  C   UNL     1       1.209  -0.133   1.226  0.00  0.00    +0.005 A 
ATOM     14  C   UNL     1       2.588  -0.316   1.365  0.00  0.00    +0.000 A 
ATOM     15  C   UNL     1       3.390  -0.497   0.239  0.00  0.00    +0.000 A 
ATOM     16  C   UNL     1       2.815  -0.503  -1.031  0.00  0.00    +0.000 A 
ATOM     17  C   UNL     1       1.438  -0.322  -1.179  0.00  0.00    +0.005 A 
ENDBRANCH   1  12
BRANCH   1  19
ATOM     18  C   UNL     1      -1.101  -2.551   0.055  0.00  0.00    +0.006 C 
ATOM     19  C   UNL     1      -1.534  -1.307  -0.737  0.00  0.00    +0.027 C 
ENDBRANCH   1  19
TORSDOF 2
REMARK  Name = 
REMARK  9 active torsions:
REMARK  status: ('A' for Active; 'I' for Inactive)
REMARK    1  A    between atoms: C_1  and  C_2
REMARK    2  A    between atoms: C_2  and  C_3
REMARK    3  A    between atoms: C_3  and  C_12
REMARK    4  A    between atoms: C_18  and  O_19
REMARK    5  A    between atoms: O_19  and  C_20
REMARK    6  A    between atoms: C_23  and  C_30
REMARK    7  A    between atoms: C_30  and  O_31
REMARK    8  A    between atoms: C_30  and  C_32
REMARK    9  A    between atoms: C_39  and  C_40
REMARK                            x       y       z     vdW  Elec       q    Type
REMARK                         _______ _______ _______ _____ _____    ______ ____
ROOT
ATOM      1  C   UNL     1      -0.436  -0.421   0.752  0.00  0.00    +0.162 C 
ENDROOT
BRANCH   1   5
ATOM      2  C   UNL     1      -4.485  -0.311  -1.013  0.00  0.00    +0.121 A 
ATOM      3  C   UNL     1      -3.215  -0.359  -0.405  0.00  0.00    +0.056 A 
ATOM      4  C   UNL     1      -2.636   0.803   0.156  0.00  0.00    +0.010 A 
ATOM      5  C   UNL     1      -1.341   0.816   0.753  0.00  0.00    -0.007 A 
ATOM      6  C   UNL     1      -0.925   1.993   1.409  0.00  0.00    +0.026 A 
ATOM      7  C   UNL     1      -1.715   3.139   1.375  0.00  0.00    +0.112 A 
ATOM      8  N   UNL     1      -2.909   3.125   0.737  0.00  0.00    -0.255 NA
ATOM      9  C   UNL     1      -3.389   2.006   0.139  0.00  0.00    +0.072 A 
ATOM     10  C   UNL     1      -4.644   2.046  -0.474  0.00  0.00    +0.032 A 
ATOM     11  C   UNL     1      -5.182   0.898  -1.052  0.00  0.00    +0.048 A 
BRANCH   2  13
ATOM     12  C   UNL     1      -4.505  -2.738  -1.626  0.00  0.00    +0.277 C 
ATOM     13  O   UNL     1      -5.091  -1.442  -1.583  0.00  0.00    -0.495 OA
ENDBRANCH   2  13
ENDBRANCH   1   5
BRANCH   1  14
ATOM     14  C   UNL     1       1.093  -0.122   0.775  0.00  0.00    +0.090 C 
ATOM     15  C   UNL     1       1.949  -1.404   0.539  0.00  0.00    +0.026 C 
ATOM     16  C   UNL     1       3.004  -1.116  -0.548  0.00  0.00    -0.000 C 
ATOM     17  C   UNL     1       2.245  -0.776  -1.843  0.00  0.00    +0.019 C 
ATOM     18  C   UNL     1       1.356   0.468  -1.600  0.00  0.00    +0.085 C 
ATOM     19  N   UNL     1       1.470   0.947  -0.197  0.00  0.00    -0.296 NA
ATOM     20  C   UNL     1       2.877   1.340   0.055  0.00  0.00    +0.092 C 
ATOM     21  C   UNL     1       3.842   0.128  -0.143  0.00  0.00    +0.028 C 
BRANCH  21  22
ATOM     22  C   UNL     1       4.681  -0.143   1.088  0.00  0.00    -0.030 C 
ATOM     23  C   UNL     1       5.746  -0.951   1.040  0.00  0.00    +0.004 C 
ENDBRANCH  21  22
ENDBRANCH   1  14
BRANCH   1  24
ATOM     24  O   UNL     1      -0.786  -1.269   1.817  0.00  0.00    -0.386 OA
ATOM     25  H   UNL     1      -0.645  -0.762   2.659  0.00  0.00    +0.210 HD
ENDBRANCH   1  24
TORSDOF 5
