REMARK  Name = 
REMARK  4 active torsions:
REMARK  status: ('A' for Active; 'I' for Inactive)
REMARK    1  A    between atoms: C_1  and  C_2
REMARK    2  A    between atoms: C_2  and  C_3
REMARK    3  A    between atoms: C_9  and  S_15
REMARK    4  A    between atoms: S_15  and  N_16
REMARK                            x       y       z     vdW  Elec       q    Type
REMARK                         _______ _______ _______ _____ _____    ______ ____
ROOT
ATOM      1  C   UNL     1      -2.516   0.646  -0.675  0.00  0.00    +0.158 C 
ATOM      2  N   UNL     1      -1.884   0.023  -1.844  0.00  0.00    -0.293 N 
ATOM      3  C   UNL     1      -0.464  -0.069  -1.986  0.00  0.00    +0.247 C 
ATOM      4  O   UNL     1       0.029  -0.431  -3.088  0.00  0.00    -0.270 OA
ATOM      5  C   UNL     1       0.404   0.244  -0.841  0.00  0.00    +0.059 A 
ATOM      6  C   UNL     1       1.804   0.184  -0.941  0.00  0.00    +0.045 A 
ATOM      7  C   UNL     1       2.613   0.467   0.170  0.00  0.00    +0.124 A 
ATOM      8  C   UNL     1       2.006   0.798   1.399  0.00  0.00    +0.069 A 
ATOM      9 CL   UNL     1       2.946   1.138   2.848  0.00  0.00    -0.081 Cl
ATOM     10  C   UNL     1       0.611   0.856   1.493  0.00  0.00    +0.045 A 
ATOM     11  C   UNL     1      -0.193   0.589   0.378  0.00  0.00    +0.042 A 
ATOM     12  N   UNL     1      -1.623   0.649   0.492  0.00  0.00    -0.325 N 
ATOM     13  H   UNL     1      -2.477  -0.188  -2.679  0.00  0.00    +0.151 HD
ATOM     14  H   UNL     1      -2.036   0.900   1.419  0.00  0.00    +0.148 HD
ENDROOT
BRANCH   7  15
ATOM     15  S   UNL     1       4.373   0.371   0.002  0.00  0.00    +0.057 S 
ATOM     16  O   UNL     1       5.014   1.583   0.617  0.00  0.00    -0.153 OA
ATOM     17  O   UNL     1       4.750   0.323  -1.453  0.00  0.00    -0.153 OA
BRANCH  15  18
ATOM     18  N   UNL     1       4.960  -1.058   0.778  0.00  0.00    -0.203 NA
ATOM     19  H   UNL     1       4.423  -1.863   0.382  0.00  0.00    +0.144 HD
ATOM     20  H   UNL     1       4.703  -0.993   1.788  0.00  0.00    +0.144 HD
ENDBRANCH  15  18
ENDBRANCH   7  15
BRANCH   1  22
ATOM     21  C   UNL     1      -3.634  -1.540   0.038  0.00  0.00    +0.007 C 
ATOM     22  C   UNL     1      -3.836  -0.070  -0.337  0.00  0.00    +0.038 C 
ENDBRANCH   1  22
TORSDOF 3
