REMARK  Name = 
REMARK  13 active torsions:
REMARK  status: ('A' for Active; 'I' for Inactive)
REMARK    1  A    between atoms: C_1  and  C_2
REMARK    2  A    between atoms: C_2  and  N_3
REMARK    3  A    between atoms: N_3  and  C_4
REMARK    4  A    between atoms: N_3  and  C_6
REMARK    5  A    between atoms: C_4  and  C_5
REMARK    6  A    between atoms: C_6  and  C_7
REMARK    7  A    between atoms: C_7  and  C_8
REMARK    8  A    between atoms: C_8  and  C_9
REMARK    9  A    between atoms: C_9  and  C_10
REMARK   10  A    between atoms: C_9  and  N_11
REMARK   11  A    between atoms: N_11  and  C_12
REMARK   12  A    between atoms: C_15  and  O_16
REMARK   13  A    between atoms: O_16  and  C_17
REMARK                            x       y       z     vdW  Elec       q    Type
REMARK                         _______ _______ _______ _____ _____    ______ ____
ROOT
ATOM      1  C   UNL     1      -2.213   1.040   0.375  0.00  0.00    +0.046 A 
ATOM      2  C   UNL     1      -3.117  -0.035   0.517  0.00  0.00    +0.025 A 
ATOM      3  C   UNL     1      -2.680  -1.343   0.802  0.00  0.00    +0.057 A 
ATOM      4  C   UNL     1      -3.596  -2.396   0.917  0.00  0.00    +0.121 A 
ATOM      5  C   UNL     1      -4.969  -2.138   0.748  0.00  0.00    +0.048 A 
ATOM      6  C   UNL     1      -5.415  -0.844   0.472  0.00  0.00    +0.032 A 
ATOM      7  C   UNL     1      -4.500   0.207   0.358  0.00  0.00    +0.074 A 
ATOM      8  N   UNL     1      -4.949   1.461   0.095  0.00  0.00    -0.247 NA
ATOM      9  C   UNL     1      -4.108   2.521  -0.011  0.00  0.00    +0.075 A 
ATOM     10  C   UNL     1      -2.712   2.341   0.142  0.00  0.00    +0.022 A 
ATOM     11  C   UNL     1      -1.869   3.468   0.081  0.00  0.00    +0.013 A 
ATOM     12  C   UNL     1      -2.402   4.736  -0.164  0.00  0.00    +0.021 A 
ATOM     13  C   UNL     1      -3.779   4.900  -0.342  0.00  0.00    +0.043 A 
ATOM     14 CL   UNL     1      -4.440   6.496  -0.649  0.00  0.00    -0.083 Cl
ATOM     15  C   UNL     1      -4.630   3.795  -0.260  0.00  0.00    +0.048 A 
ENDROOT
BRANCH   1  16
ATOM     16  N   UNL     1      -0.799   0.804   0.462  0.00  0.00    -0.340 N 
ATOM     17  H   UNL     1      -0.394   0.645   1.412  0.00  0.00    +0.146 HD
BRANCH  16  18
ATOM     18  C   UNL     1       0.056   0.779  -0.734  0.00  0.00    +0.067 C 
ATOM     19  C   UNL     1      -0.387  -0.325  -1.705  0.00  0.00    +0.028 C 
BRANCH  18  20
ATOM     20  C   UNL     1       1.547   0.658  -0.351  0.00  0.00    +0.023 C 
BRANCH  20  21
ATOM     21  C   UNL     1       1.932  -0.704   0.260  0.00  0.00    +0.017 C 
BRANCH  21  22
ATOM     22  C   UNL     1       3.354  -0.689   0.840  0.00  0.00    +0.084 C 
BRANCH  22  23
ATOM     23  N   UNL     1       4.363  -0.249  -0.154  0.00  0.00    -0.303 NA
BRANCH  23  25
ATOM     24  C   UNL     1       5.526   1.685   0.834  0.00  0.00    +0.020 C 
ATOM     25  C   UNL     1       5.615   0.201   0.494  0.00  0.00    +0.081 C 
ENDBRANCH  23  25
BRANCH  23  26
ATOM     26  C   UNL     1       4.610  -1.229  -1.241  0.00  0.00    +0.081 C 
ATOM     27  C   UNL     1       5.173  -2.575  -0.761  0.00  0.00    +0.020 C 
ENDBRANCH  23  26
ENDBRANCH  22  23
ENDBRANCH  21  22
ENDBRANCH  20  21
ENDBRANCH  18  20
ENDBRANCH  16  18
ENDBRANCH   1  16
BRANCH   4  28
ATOM     28  O   UNL     1      -3.102  -3.678   1.200  0.00  0.00    -0.495 OA
ATOM     29  C   UNL     1      -3.913  -4.840   1.343  0.00  0.00    +0.277 C 
ENDBRANCH   4  28
TORSDOF 9
