REMARK  Name = 
REMARK  6 active torsions:
REMARK  status: ('A' for Active; 'I' for Inactive)
REMARK    1  A    between atoms: C_6  and  C_7
REMARK    2  A    between atoms: C_9  and  C_11
REMARK    3  A    between atoms: C_11  and  O_12
REMARK    4  A    between atoms: C_11  and  C_13
REMARK    5  A    between atoms: C_16  and  O_17
REMARK    6  A    between atoms: O_17  and  C_18
REMARK                            x       y       z     vdW  Elec       q    Type
REMARK                         _______ _______ _______ _____ _____    ______ ____
ROOT
ATOM      1  C   UNL     1      -0.323   1.208   0.851  0.00  0.00    +0.162 C 
ENDROOT
BRANCH   1   2
ATOM      2  C   UNL     1       0.786   1.559  -0.138  0.00  0.00    -0.007 A 
ATOM      3  C   UNL     1       2.113   1.038  -0.071  0.00  0.00    +0.010 A 
ATOM      4  C   UNL     1       2.564   0.191   0.967  0.00  0.00    +0.056 A 
ATOM      5  C   UNL     1       3.874  -0.305   0.981  0.00  0.00    +0.121 A 
ATOM      6  C   UNL     1       4.759   0.050  -0.050  0.00  0.00    +0.048 A 
ATOM      7  C   UNL     1       4.339   0.895  -1.075  0.00  0.00    +0.032 A 
ATOM      8  C   UNL     1       3.033   1.392  -1.093  0.00  0.00    +0.072 A 
ATOM      9  N   UNL     1       2.655   2.221  -2.100  0.00  0.00    -0.255 NA
ATOM     10  C   UNL     1       1.406   2.738  -2.172  0.00  0.00    +0.112 A 
ATOM     11  C   UNL     1       0.459   2.420  -1.203  0.00  0.00    +0.026 A 
BRANCH   5  12
ATOM     12  O   UNL     1       4.254  -1.145   2.038  0.00  0.00    -0.495 OA
ATOM     13  C   UNL     1       5.548  -1.723   2.183  0.00  0.00    +0.277 C 
ENDBRANCH   5  12
ENDBRANCH   1   2
BRANCH   1  20
ATOM     14  C   UNL     1      -3.075  -1.387   0.669  0.00  0.00    -0.000 C 
ATOM     15  C   UNL     1      -2.332  -2.598   0.065  0.00  0.00    +0.019 C 
ATOM     16  C   UNL     1      -1.193  -2.088  -0.860  0.00  0.00    +0.085 C 
ATOM     17  N   UNL     1      -1.046  -0.613  -0.757  0.00  0.00    -0.296 NA
ATOM     18  C   UNL     1      -2.291   0.024  -1.265  0.00  0.00    +0.092 C 
ATOM     19  C   UNL     1      -3.548  -0.498  -0.507  0.00  0.00    +0.028 C 
ATOM     20  C   UNL     1      -0.808  -0.261   0.675  0.00  0.00    +0.090 C 
ATOM     21  C   UNL     1      -2.067  -0.592   1.531  0.00  0.00    +0.026 C 
BRANCH  19  22
ATOM     22  C   UNL     1      -4.455   0.625  -0.052  0.00  0.00    -0.030 C 
ATOM     23  C   UNL     1      -5.057   1.432  -0.931  0.00  0.00    +0.004 C 
ENDBRANCH  19  22
ENDBRANCH   1  20
BRANCH   1  24
ATOM     24  O   UNL     1       0.128   1.434   2.163  0.00  0.00    -0.386 OA
ATOM     25  H   UNL     1      -0.671   1.567   2.736  0.00  0.00    +0.210 HD
ENDBRANCH   1  24
TORSDOF 5
