REMARK  Name = 
REMARK  16 active torsions:
REMARK  status: ('A' for Active; 'I' for Inactive)
REMARK    1  A    between atoms: C_1  and  C_2
REMARK    2  A    between atoms: C_2  and  C_3
REMARK    3  A    between atoms: C_7  and  N_8
REMARK    4  A    between atoms: C_9  and  C_11
REMARK    5  A    between atoms: C_16  and  O_17
REMARK    6  A    between atoms: C_18  and  C_19
REMARK    7  A    between atoms: C_23  and  C_68
REMARK    8  A    between atoms: C_31  and  C_32
REMARK    9  A    between atoms: C_32  and  S_33
REMARK   10  A    between atoms: S_33  and  C_34
REMARK   11  A    between atoms: C_46  and  C_47
REMARK   12  A    between atoms: C_47  and  C_48
REMARK   13  A    between atoms: C_51  and  N_54
REMARK   14  A    between atoms: N_54  and  C_55
REMARK   15  A    between atoms: N_54  and  C_56
REMARK   16  A    between atoms: N_57  and  C_58
REMARK                            x       y       z     vdW  Elec       q    Type
REMARK                         _______ _______ _______ _____ _____    ______ ____
ROOT
ATOM      1  C   UNL     1       4.818   2.079  -0.178  0.00  0.00    +0.159 C 
ATOM      2  N   UNL     1       5.269   0.783  -0.700  0.00  0.00    -0.302 N 
ATOM      3  C   UNL     1       5.665   0.580  -2.067  0.00  0.00    +0.238 C 
ATOM      4  O   UNL     1       5.470   1.486  -2.926  0.00  0.00    -0.274 OA
ATOM      5  C   UNL     1       6.256  -0.733  -2.527  0.00  0.00    +0.200 C 
ATOM      6  C   UNL     1       5.181  -1.618  -3.200  0.00  0.00    +0.203 C 
ATOM      7  C   UNL     1       5.830  -2.786  -3.946  0.00  0.00    +0.054 C 
ATOM      8  O   UNL     1       4.267  -2.153  -2.240  0.00  0.00    -0.458 OA
ATOM      9  C   UNL     1       3.062  -1.542  -1.871  0.00  0.00    +0.333 C 
ATOM     10  O   UNL     1       2.773  -0.391  -2.295  0.00  0.00    -0.248 OA
ATOM     11  C   UNL     1       2.088  -2.263  -0.972  0.00  0.00    +0.213 C 
ATOM     12  N   UNL     1       0.771  -2.328  -1.609  0.00  0.00    -0.297 N 
ATOM     13  C   UNL     1      -0.446  -2.439  -0.856  0.00  0.00    +0.235 C 
ATOM     14  O   UNL     1      -0.414  -2.453   0.404  0.00  0.00    -0.274 OA
ATOM     15  C   UNL     1      -1.774  -2.467  -1.577  0.00  0.00    +0.169 C 
ATOM     16  C   UNL     1      -2.633  -3.639  -1.056  0.00  0.00    +0.106 C 
ATOM     17  C   UNL     1      -4.051  -3.513  -1.540  0.00  0.00    +0.141 C 
ATOM     18  O   UNL     1      -4.634  -4.484  -1.998  0.00  0.00    -0.297 OA
ATOM     19  C   UNL     1      -4.760  -2.192  -1.406  0.00  0.00    +0.082 C 
ATOM     20  C   UNL     1      -3.857  -1.084  -1.968  0.00  0.00    +0.120 C 
ATOM     21  N   UNL     1      -2.487  -1.175  -1.442  0.00  0.00    -0.287 N 
ATOM     22  C   UNL     1      -1.733   0.051  -1.426  0.00  0.00    +0.237 C 
ATOM     23  O   UNL     1      -0.782   0.210  -2.243  0.00  0.00    -0.274 OA
ATOM     24  C   UNL     1      -2.107   1.151  -0.469  0.00  0.00    +0.166 C 
ATOM     25  N   UNL     1      -0.980   1.472   0.447  0.00  0.00    -0.291 N 
ATOM     26  C   UNL     1      -1.030   0.951   1.821  0.00  0.00    +0.133 C 
ATOM     27  C   UNL     1       0.182   2.231   0.020  0.00  0.00    +0.236 C 
ATOM     28  O   UNL     1       0.374   2.452  -1.210  0.00  0.00    -0.274 OA
ATOM     29  C   UNL     1       1.149   2.852   1.013  0.00  0.00    +0.162 C 
ATOM     30  C   UNL     1       0.736   4.285   1.347  0.00  0.00    +0.033 C 
ATOM     31  C   UNL     1       1.498   5.155   0.354  0.00  0.00    +0.021 C 
ATOM     32  C   UNL     1       2.750   4.355   0.001  0.00  0.00    +0.109 C 
ATOM     33  N   UNL     1       2.474   2.986   0.415  0.00  0.00    -0.288 N 
ATOM     34  C   UNL     1       3.449   1.922   0.447  0.00  0.00    +0.237 C 
ATOM     35  O   UNL     1       3.169   0.842   1.041  0.00  0.00    -0.274 OA
ATOM     36  H   UNL     1       5.404   0.012  -0.004  0.00  0.00    +0.150 HD
ATOM     37  H   UNL     1       0.722  -2.389  -2.652  0.00  0.00    +0.150 HD
ENDROOT
BRANCH  11  38
ATOM     38  C   UNL     1       2.556  -3.668  -0.642  0.00  0.00    -0.017 A 
ATOM     39  C   UNL     1       2.657  -4.644  -1.650  0.00  0.00    +0.006 A 
ATOM     40  C   UNL     1       3.073  -5.939  -1.333  0.00  0.00    +0.000 A 
ATOM     41  C   UNL     1       3.384  -6.276  -0.014  0.00  0.00    +0.000 A 
ATOM     42  C   UNL     1       3.293  -5.312   0.995  0.00  0.00    +0.000 A 
ATOM     43  C   UNL     1       2.878  -4.013   0.683  0.00  0.00    +0.006 A 
ENDBRANCH  11  38
BRANCH   5  44
ATOM     44  N   UNL     1       6.899  -1.441  -1.411  0.00  0.00    -0.296 N 
ATOM     45  C   UNL     1       8.248  -1.167  -0.995  0.00  0.00    +0.267 C 
ATOM     46  O   UNL     1       9.010  -0.490  -1.739  0.00  0.00    -0.268 OA
ATOM     47  H   UNL     1       6.317  -2.071  -0.812  0.00  0.00    +0.150 HD
BRANCH  45  48
ATOM     48  C   UNL     1       8.718  -1.631   0.328  0.00  0.00    +0.167 A 
ATOM     49  N   UNL     1       7.792  -1.761   1.323  0.00  0.00    -0.247 NA
ATOM     50  C   UNL     1       8.121  -2.136   2.587  0.00  0.00    +0.112 A 
ATOM     51  C   UNL     1       9.452  -2.382   2.913  0.00  0.00    +0.023 A 
ATOM     52  C   UNL     1      10.430  -2.277   1.925  0.00  0.00    +0.049 A 
ATOM     53  C   UNL     1      10.078  -1.924   0.616  0.00  0.00    +0.147 A 
BRANCH  53  54
ATOM     54  O   UNL     1      11.082  -1.913  -0.352  0.00  0.00    -0.504 OA
ATOM     55  H   UNL     1      10.897  -1.847  -1.346  0.00  0.00    +0.292 HD
ENDBRANCH  53  54
ENDBRANCH  45  48
ENDBRANCH   5  44
BRANCH   1  57
ATOM     56  C   UNL     1       7.206   2.852   0.235  0.00  0.00    +0.006 C 
ATOM     57  C   UNL     1       5.828   2.606   0.862  0.00  0.00    +0.028 C 
ENDBRANCH   1  57
BRANCH  19  58
ATOM     58  C   UNL     1      -5.142  -1.946   0.069  0.00  0.00    +0.082 C 
BRANCH  58  59
ATOM     59  S   UNL     1      -6.252  -0.494   0.229  0.00  0.00    -0.155 S 
BRANCH  59  60
ATOM     60  C   UNL     1      -7.862  -1.221   0.768  0.00  0.00    +0.064 C 
ATOM     61  C   UNL     1      -7.832  -2.067   2.070  0.00  0.00    +0.098 C 
ATOM     62  N   UNL     1      -8.737  -3.243   1.947  0.00  0.00    -0.301 NA
ATOM     63  C   UNL     1     -10.109  -2.802   1.581  0.00  0.00    +0.085 C 
ATOM     64  C   UNL     1     -10.123  -2.072   0.203  0.00  0.00    +0.020 C 
ATOM     65  C   UNL     1      -8.674  -1.974  -0.323  0.00  0.00    +0.006 C 
ATOM     66  C   UNL     1      -8.186  -3.430  -0.482  0.00  0.00    +0.020 C 
ATOM     67  C   UNL     1      -8.219  -4.146   0.890  0.00  0.00    +0.085 C 
ENDBRANCH  59  60
ENDBRANCH  58  59
ENDBRANCH  19  58
BRANCH  24  68
ATOM     68  C   UNL     1      -2.651   2.385  -1.220  0.00  0.00    +0.067 C 
BRANCH  68  69
ATOM     69  C   UNL     1      -3.034   3.508  -0.283  0.00  0.00    -0.045 A 
ATOM     70  C   UNL     1      -4.010   3.315   0.705  0.00  0.00    +0.005 A 
ATOM     71  C   UNL     1      -4.359   4.355   1.570  0.00  0.00    +0.023 A 
ATOM     72  C   UNL     1      -3.760   5.627   1.449  0.00  0.00    +0.029 A 
ATOM     73  C   UNL     1      -2.793   5.812   0.438  0.00  0.00    +0.023 A 
ATOM     74  C   UNL     1      -2.437   4.768  -0.416  0.00  0.00    +0.005 A 
BRANCH  72  75
ATOM     75  N   UNL     1      -4.139   6.714   2.336  0.00  0.00    -0.336 N 
ATOM     76  C   UNL     1      -3.334   7.942   2.397  0.00  0.00    +0.129 C 
ATOM     77  C   UNL     1      -5.329   6.609   3.189  0.00  0.00    +0.129 C 
ENDBRANCH  72  75
ENDBRANCH  68  69
ENDBRANCH  24  68
TORSDOF 11
