REMARK  Name = 
REMARK  5 active torsions:
REMARK  status: ('A' for Active; 'I' for Inactive)
REMARK    1  A    between atoms: C_4  and  O_5
REMARK    2  A    between atoms: C_4  and  C_6
REMARK    3  A    between atoms: C_8  and  C_9
REMARK    4  A    between atoms: C_19  and  O_20
REMARK    5  A    between atoms: O_20  and  C_21
REMARK                            x       y       z     vdW  Elec       q    Type
REMARK                         _______ _______ _______ _____ _____    ______ ____
ROOT
ATOM      1  C   UNL     1      -3.197   0.907  -0.038  0.00  0.00    +0.002 C 
ATOM      2  C   UNL     1      -3.865   2.085   0.661  0.00  0.00    +0.008 C 
ATOM      3  C   UNL     1      -5.341   1.667   0.801  0.00  0.00    +0.049 C 
ATOM      4  C   UNL     1      -5.444   0.186   0.345  0.00  0.00    +0.132 C 
ATOM      5  C   UNL     1      -3.971  -0.327   0.454  0.00  0.00    +0.011 C 
ATOM      6  C   UNL     1      -3.672  -0.692   1.948  0.00  0.00    +0.015 C 
ATOM      7  C   UNL     1      -3.578  -1.526  -0.447  0.00  0.00    +0.011 C 
ATOM      8  C   UNL     1      -2.046  -1.758  -0.460  0.00  0.00    +0.009 C 
ATOM      9  C   UNL     1      -1.234  -0.471  -0.804  0.00  0.00    +0.023 C 
ATOM     10  C   UNL     1       0.284  -0.654  -0.752  0.00  0.00    -0.041 A 
ATOM     11  C   UNL     1       1.131   0.458  -0.488  0.00  0.00    -0.040 A 
ATOM     12  C   UNL     1       0.587   1.812  -0.087  0.00  0.00    +0.036 C 
ATOM     13  C   UNL     1      -0.907   1.982  -0.372  0.00  0.00    +0.009 C 
ATOM     14  C   UNL     1      -1.670   0.732   0.085  0.00  0.00    +0.000 C 
ATOM     15  C   UNL     1       2.526   0.297  -0.514  0.00  0.00    +0.049 A 
ATOM     16  C   UNL     1       3.103  -0.940  -0.843  0.00  0.00    +0.121 A 
ATOM     17  C   UNL     1       2.271  -2.015  -1.154  0.00  0.00    +0.046 A 
ATOM     18  C   UNL     1       0.883  -1.876  -1.123  0.00  0.00    +0.008 A 
ENDROOT
BRANCH   4  19
ATOM     19  O   UNL     1      -6.325  -0.514   1.191  0.00  0.00    -0.376 OA
ATOM     20  H   UNL     1      -6.324  -1.464   0.900  0.00  0.00    +0.211 HD
ENDBRANCH   4  19
BRANCH   4  21
ATOM     21  C   UNL     1      -5.973   0.142  -1.041  0.00  0.00    -0.070 C 
ATOM     22  C   UNL     1      -6.404   0.109  -2.167  0.00  0.00    +0.007 C 
ENDBRANCH   4  21
BRANCH  16  23
ATOM     23  O   UNL     1       4.491  -1.145  -0.881  0.00  0.00    -0.489 OA
BRANCH  23  24
ATOM     24  C   UNL     1       5.482  -0.175  -0.533  0.00  0.00    +0.173 C 
ATOM     25  C   UNL     1       5.515   0.083   0.978  0.00  0.00    +0.044 C 
ATOM     26  C   UNL     1       6.969  -0.055   1.422  0.00  0.00    +0.004 C 
ATOM     27  C   UNL     1       7.798  -0.125   0.152  0.00  0.00    +0.004 C 
ATOM     28  C   UNL     1       6.866  -0.691  -0.901  0.00  0.00    +0.044 C 
ENDBRANCH  23  24
ENDBRANCH  16  23
TORSDOF 4
