REMARK  Name = 
REMARK  13 active torsions:
REMARK  status: ('A' for Active; 'I' for Inactive)
REMARK    1  A    between atoms: C_1  and  C_2
REMARK    2  A    between atoms: C_2  and  O_3
REMARK    3  A    between atoms: O_3  and  C_4
REMARK    4  A    between atoms: C_4  and  C_6
REMARK    5  A    between atoms: C_6  and  C_7
REMARK    6  A    between atoms: C_6  and  N_15
REMARK    7  A    between atoms: C_7  and  C_8
REMARK    8  A    between atoms: C_8  and  C_9
REMARK    9  A    between atoms: N_15  and  CA_16
REMARK   10  A    between atoms: CA_16  and  CB_17
REMARK   11  A    between atoms: CA_16  and  C_18
REMARK   12  A    between atoms: C_29  and  C_30
REMARK   13  A    between atoms: C_30  and  O_31
REMARK                            x       y       z     vdW  Elec       q    Type
REMARK                         _______ _______ _______ _____ _____    ______ ____
ROOT
ATOM      1  CA  ALA A   1       0.039  -1.300  -0.205  0.00  0.00    +0.138 C 
ATOM      2  CB  ALA A   1       0.178  -2.733   0.329  0.00  0.00    +0.034 C 
ENDROOT
BRANCH   1   3
ATOM      3  C   ALA A   1       1.207  -0.999  -1.121  0.00  0.00    +0.233 C 
ATOM      4  O   ALA A   1       1.240  -1.546  -2.257  0.00  0.00    -0.274 OA
ATOM      5  N   UNK A   2       2.268  -0.097  -0.738  0.00  0.00    -0.282 N 
ATOM      6  C   UNK A   2       2.875   0.730  -1.800  0.00  0.00    +0.144 C 
ATOM      7  C   UNK A   2       3.976   1.636  -1.303  0.00  0.00    -0.027 A 
ATOM      8  C   UNK A   2       4.353   2.754  -2.065  0.00  0.00    +0.005 A 
ATOM      9  C   UNK A   2       5.404   3.573  -1.644  0.00  0.00    +0.000 A 
ATOM     10  C   UNK A   2       6.099   3.271  -0.471  0.00  0.00    +0.000 A 
ATOM     11  C   UNK A   2       5.743   2.152   0.288  0.00  0.00    +0.004 A 
ATOM     12  C   UNK A   2       4.674   1.337  -0.118  0.00  0.00    -0.040 A 
ATOM     13  C   UNK A   2       4.282   0.133   0.687  0.00  0.00    +0.069 C 
ATOM     14  C   UNK A   2       2.760  -0.067   0.654  0.00  0.00    +0.189 C 
BRANCH  14  15
ATOM     15  C   UNK A   2       2.059   0.998   1.455  0.00  0.00    +0.326 C 
ATOM     16  O   UNK A   2       1.802   2.123   0.947  0.00  0.00    -0.249 OA
BRANCH  15  17
ATOM     17  O   UNK A   2       1.737   0.751   2.787  0.00  0.00    -0.479 OA
ATOM     18  H   UNK A   2       1.291   1.461   3.355  0.00  0.00    +0.295 HD
ENDBRANCH  15  17
ENDBRANCH  14  15
ENDBRANCH   1   3
BRANCH   1  19
ATOM     19  N   ALA A   1      -1.228  -1.132  -0.952  0.00  0.00    -0.294 NA
ATOM     20  H   ALA A   1      -1.153  -0.246  -1.500  0.00  0.00    +0.123 HD
BRANCH  19  21
ATOM     21  C   UNK A   0      -2.421  -1.065  -0.075  0.00  0.00    +0.164 C 
BRANCH  21  22
ATOM     22  C   UNK A   0      -2.950  -2.454   0.145  0.00  0.00    +0.324 C 
ATOM     23  O   UNK A   0      -3.393  -2.784   1.280  0.00  0.00    -0.249 OA
BRANCH  22  24
ATOM     24  O   UNK A   0      -2.999  -3.353  -0.925  0.00  0.00    -0.464 OA
BRANCH  24  26
ATOM     25  C   UNK A   0      -3.378  -5.404  -2.121  0.00  0.00    +0.048 C 
ATOM     26  C   UNK A   0      -3.514  -4.673  -0.795  0.00  0.00    +0.229 C 
ENDBRANCH  24  26
ENDBRANCH  22  24
ENDBRANCH  21  22
BRANCH  21  27
ATOM     27  C   UNK A   0      -3.557  -0.222  -0.713  0.00  0.00    +0.035 C 
BRANCH  27  28
ATOM     28  C   UNK A   0      -3.292   1.295  -0.761  0.00  0.00    +0.037 C 
BRANCH  28  29
ATOM     29  C   UNK A   0      -3.033   1.882   0.602  0.00  0.00    -0.047 A 
ATOM     30  C   UNK A   0      -4.094   2.067   1.506  0.00  0.00    +0.003 A 
ATOM     31  C   UNK A   0      -3.851   2.599   2.776  0.00  0.00    +0.000 A 
ATOM     32  C   UNK A   0      -2.551   2.952   3.152  0.00  0.00    +0.000 A 
ATOM     33  C   UNK A   0      -1.491   2.768   2.259  0.00  0.00    +0.000 A 
ATOM     34  C   UNK A   0      -1.728   2.230   0.990  0.00  0.00    +0.003 A 
ENDBRANCH  28  29
ENDBRANCH  27  28
ENDBRANCH  21  27
ENDBRANCH  19  21
ENDBRANCH   1  19
TORSDOF 11
