REMARK  Name = 
REMARK  6 active torsions:
REMARK  status: ('A' for Active; 'I' for Inactive)
REMARK    1  A    between atoms: C_2  and  C_12
REMARK    2  A    between atoms: C_9  and  C_10
REMARK    3  A    between atoms: C_12  and  O_13
REMARK    4  A    between atoms: C_12  and  C_14
REMARK    5  A    between atoms: C_21  and  O_22
REMARK    6  A    between atoms: O_22  and  C_23
REMARK                            x       y       z     vdW  Elec       q    Type
REMARK                         _______ _______ _______ _____ _____    ______ ____
ROOT
ATOM      1  C   UNL     1       0.565  -0.078   0.145  0.00  0.00    +0.162 C 
ENDROOT
BRANCH   1   2
ATOM      2  C   UNL     1       0.063   0.142   1.565  0.00  0.00    -0.007 A 
ATOM      3  C   UNL     1       0.949   0.369   2.629  0.00  0.00    +0.026 A 
ATOM      4  C   UNL     1       0.468   0.797   3.842  0.00  0.00    +0.112 A 
ATOM      5  N   UNL     1      -0.837   0.902   4.108  0.00  0.00    -0.255 NA
ATOM      6  C   UNL     1      -1.704   0.586   3.134  0.00  0.00    +0.072 A 
ATOM      7  C   UNL     1      -3.045   0.631   3.444  0.00  0.00    +0.032 A 
ATOM      8  C   UNL     1      -4.035   0.362   2.497  0.00  0.00    +0.048 A 
ATOM      9  C   UNL     1      -3.690   0.055   1.189  0.00  0.00    +0.121 A 
ATOM     10  C   UNL     1      -2.341  -0.018   0.859  0.00  0.00    +0.056 A 
ATOM     11  C   UNL     1      -1.326   0.223   1.825  0.00  0.00    +0.010 A 
BRANCH   9  12
ATOM     12  O   UNL     1      -4.563  -0.196   0.168  0.00  0.00    -0.495 OA
ATOM     13  C   UNL     1      -5.942  -0.163   0.515  0.00  0.00    +0.277 C 
ENDBRANCH   9  12
ENDBRANCH   1   2
BRANCH   1  14
ATOM     14  C   UNL     1       2.123   0.015  -0.027  0.00  0.00    +0.090 C 
ATOM     15  C   UNL     1       2.659   1.397   0.449  0.00  0.00    +0.026 C 
ATOM     16  C   UNL     1       3.320   2.140  -0.703  0.00  0.00    -0.000 C 
ATOM     17  C   UNL     1       2.322   2.149  -1.873  0.00  0.00    +0.019 C 
ATOM     18  C   UNL     1       2.086   0.705  -2.360  0.00  0.00    +0.085 C 
ATOM     19  N   UNL     1       2.637  -0.280  -1.403  0.00  0.00    -0.296 NA
ATOM     20  C   UNL     1       4.118  -0.130  -1.389  0.00  0.00    +0.092 C 
ATOM     21  C   UNL     1       4.560   1.336  -1.129  0.00  0.00    +0.028 C 
BRANCH  21  22
ATOM     22  C   UNL     1       5.660   1.415  -0.097  0.00  0.00    -0.030 C 
ATOM     23  C   UNL     1       6.848   1.995  -0.335  0.00  0.00    +0.004 C 
ENDBRANCH  21  22
ENDBRANCH   1  14
BRANCH   1  24
ATOM     24  O   UNL     1      -0.082   0.907  -0.678  0.00  0.00    -0.386 OA
ATOM     25  H   UNL     1      -0.349   1.659  -0.124  0.00  0.00    +0.210 HD
ENDBRANCH   1  24
TORSDOF 5
