REMARK  Name = 
REMARK  10 active torsions:
REMARK  status: ('A' for Active; 'I' for Inactive)
REMARK    1  A    between atoms: C_1  and  O_2
REMARK    2  A    between atoms: O_2  and  C_3
REMARK    3  A    between atoms: C_3  and  C_4
REMARK    4  A    between atoms: C_4  and  C_5
REMARK    5  A    between atoms: C_5  and  O_6
REMARK    6  A    between atoms: O_6  and  C_7
REMARK    7  A    between atoms: C_8  and  C_9
REMARK    8  A    between atoms: C_10  and  C_11
REMARK    9  A    between atoms: C_11  and  S_12
REMARK   10  A    between atoms: S_12  and  C_14
REMARK                            x       y       z     vdW  Elec       q    Type
REMARK                         _______ _______ _______ _____ _____    ______ ____
ROOT
ATOM      1  C   UNL     1       1.238   0.025  -1.669  0.00  0.00    +0.127 A 
ATOM      2  C   UNL     1       0.140  -0.510  -2.379  0.00  0.00    +0.013 A 
ATOM      3  C   UNL     1       0.263  -1.853  -3.054  0.00  0.00    +0.049 C 
ATOM      4  C   UNL     1      -1.079   0.213  -2.404  0.00  0.00    +0.060 A 
ATOM      5  N   UNL     1      -1.129   1.444  -1.829  0.00  0.00    -0.258 NA
ATOM      6  C   UNL     1      -0.081   1.985  -1.163  0.00  0.00    +0.114 A 
ATOM      7  C   UNL     1       1.113   1.285  -1.059  0.00  0.00    +0.065 A 
ENDROOT
BRANCH   1   8
ATOM      8  O   UNL     1       2.434  -0.712  -1.604  0.00  0.00    -0.492 OA
BRANCH   8   9
ATOM      9  C   UNL     1       3.616  -0.326  -0.902  0.00  0.00    +0.231 C 
BRANCH   9  10
ATOM     10  C   UNL     1       3.459  -0.589   0.601  0.00  0.00    +0.069 C 
BRANCH  10  11
ATOM     11  C   UNL     1       4.658  -0.060   1.391  0.00  0.00    +0.163 C 
BRANCH  11  13
ATOM     12  C   UNL     1       5.776   1.845   2.052  0.00  0.00    +0.193 C 
ATOM     13  O   UNL     1       4.631   1.352   1.391  0.00  0.00    -0.383 OA
ENDBRANCH  11  13
ENDBRANCH  10  11
ENDBRANCH   9  10
ENDBRANCH   8   9
ENDBRANCH   1   8
BRANCH   4  14
ATOM     14  C   UNL     1      -2.293  -0.303  -3.147  0.00  0.00    +0.167 C 
BRANCH  14  15
ATOM     15  S   UNL     1      -3.884   0.311  -2.513  0.00  0.00    +0.095 S 
ATOM     16  O   UNL     1      -3.818   1.830  -2.622  0.00  0.00    -0.249 OA
BRANCH  15  17
ATOM     17  C   UNL     1      -3.914  -0.035  -0.770  0.00  0.00    +0.198 A 
ATOM     18  N   UNL     1      -4.458  -1.172  -0.264  0.00  0.00    -0.220 NA
ATOM     19  C   UNL     1      -4.303  -1.008   1.062  0.00  0.00    +0.090 A 
ATOM     20  C   UNL     1      -4.699  -1.871   2.080  0.00  0.00    +0.030 A 
ATOM     21  C   UNL     1      -4.450  -1.472   3.406  0.00  0.00    +0.002 A 
ATOM     22  C   UNL     1      -3.823  -0.234   3.678  0.00  0.00    +0.002 A 
ATOM     23  C   UNL     1      -3.438   0.615   2.625  0.00  0.00    +0.028 A 
ATOM     24  C   UNL     1      -3.696   0.183   1.327  0.00  0.00    +0.067 A 
ATOM     25  N   UNL     1      -3.445   0.818   0.174  0.00  0.00    -0.331 N 
ATOM     26  H   UNL     1      -3.015   1.759   0.043  0.00  0.00    +0.168 HD
ENDBRANCH  15  17
ENDBRANCH  14  15
ENDBRANCH   4  14
TORSDOF 8
