REMARK  Name = 
REMARK  9 active torsions:
REMARK  status: ('A' for Active; 'I' for Inactive)
REMARK    1  A    between atoms: O_1  and  C_2
REMARK    2  A    between atoms: C_5  and  C_8
REMARK    3  A    between atoms: C_9  and  C_10
REMARK    4  A    between atoms: C_10  and  C_12
REMARK    5  A    between atoms: C_15  and  O_16
REMARK    6  A    between atoms: O_16  and  C_17
REMARK    7  A    between atoms: C_17  and  C_18
REMARK    8  A    between atoms: C_18  and  N_19
REMARK    9  A    between atoms: C_31  and  O_32
REMARK                            x       y       z     vdW  Elec       q    Type
REMARK                         _______ _______ _______ _____ _____    ______ ____
ROOT
ATOM      1  C   UNL     1      -4.958   0.434   0.073  0.00  0.00    +0.031 A 
ATOM      2  C   UNL     1      -3.768  -0.183  -0.354  0.00  0.00    +0.045 A 
ATOM      3  C   UNL     1      -3.677  -1.525   0.071  0.00  0.00    +0.001 A 
ATOM      4  C   UNL     1      -4.768  -1.937   0.825  0.00  0.00    +0.024 A 
ATOM      5  S   UNL     1      -5.865  -0.679   0.970  0.00  0.00    -0.087 S 
ATOM      6  C   UNL     1      -4.878  -3.229   1.332  0.00  0.00    +0.061 A 
ATOM      7  C   UNL     1      -3.846  -4.144   1.059  0.00  0.00    +0.118 A 
ATOM      8  C   UNL     1      -2.741  -3.746   0.283  0.00  0.00    +0.046 A 
ATOM      9  C   UNL     1      -2.654  -2.438  -0.221  0.00  0.00    +0.013 A 
ENDROOT
BRANCH   1  13
ATOM     10  C   UNL     1      -6.195   4.493  -0.568  0.00  0.00    +0.117 A 
ATOM     11  C   UNL     1      -4.855   4.208  -0.275  0.00  0.00    +0.046 A 
ATOM     12  C   UNL     1      -4.447   2.888  -0.066  0.00  0.00    +0.012 A 
ATOM     13  C   UNL     1      -5.373   1.834  -0.160  0.00  0.00    -0.010 A 
ATOM     14  C   UNL     1      -6.718   2.130  -0.438  0.00  0.00    +0.012 A 
ATOM     15  C   UNL     1      -7.124   3.451  -0.647  0.00  0.00    +0.046 A 
BRANCH  10  16
ATOM     16  O   UNL     1      -6.613   5.805  -0.779  0.00  0.00    -0.507 OA
ATOM     17  H   UNL     1      -5.964   6.582  -0.729  0.00  0.00    +0.292 HD
ENDBRANCH  10  16
ENDBRANCH   1  13
BRANCH   2  18
ATOM     18  C   UNL     1      -2.773   0.472  -1.230  0.00  0.00    +0.195 C 
ATOM     19  O   UNL     1      -3.169   0.979  -2.315  0.00  0.00    -0.287 OA
BRANCH  18  20
ATOM     20  C   UNL     1      -1.340   0.567  -0.856  0.00  0.00    +0.023 A 
ATOM     21  C   UNL     1      -0.929   0.409   0.480  0.00  0.00    +0.015 A 
ATOM     22  C   UNL     1       0.423   0.506   0.824  0.00  0.00    +0.046 A 
ATOM     23  C   UNL     1       1.389   0.769  -0.164  0.00  0.00    +0.121 A 
ATOM     24  C   UNL     1       0.980   0.936  -1.490  0.00  0.00    +0.046 A 
ATOM     25  C   UNL     1      -0.371   0.840  -1.836  0.00  0.00    +0.015 A 
BRANCH  23  26
ATOM     26  O   UNL     1       2.756   0.873   0.129  0.00  0.00    -0.491 OA
BRANCH  26  27
ATOM     27  C   UNL     1       3.318   0.709   1.430  0.00  0.00    +0.244 C 
BRANCH  27  28
ATOM     28  C   UNL     1       4.838   0.873   1.363  0.00  0.00    +0.125 C 
BRANCH  28  29
ATOM     29  N   UNL     1       5.436   0.003   0.326  0.00  0.00    -0.299 NA
ATOM     30  C   UNL     1       6.831   0.407   0.061  0.00  0.00    +0.084 C 
ATOM     31  C   UNL     1       7.371  -0.305  -1.193  0.00  0.00    +0.015 C 
ATOM     32  C   UNL     1       6.689  -1.660  -1.439  0.00  0.00    +0.002 C 
ATOM     33  C   UNL     1       6.311  -2.327  -0.116  0.00  0.00    +0.015 C 
ATOM     34  C   UNL     1       5.366  -1.430   0.714  0.00  0.00    +0.084 C 
ENDBRANCH  28  29
ENDBRANCH  27  28
ENDBRANCH  26  27
ENDBRANCH  23  26
ENDBRANCH  18  20
ENDBRANCH   2  18
BRANCH   7  35
ATOM     35  O   UNL     1      -3.909  -5.447   1.547  0.00  0.00    -0.507 OA
ATOM     36  H   UNL     1      -4.692  -5.765   2.106  0.00  0.00    +0.292 HD
ENDBRANCH   7  35
TORSDOF 9
