REMARK  Name = 
REMARK  13 active torsions:
REMARK  status: ('A' for Active; 'I' for Inactive)
REMARK    1  A    between atoms: C_1  and  N_2
REMARK    2  A    between atoms: N_2  and  C_3
REMARK    3  A    between atoms: N_2  and  C_16
REMARK    4  A    between atoms: C_3  and  C_4
REMARK    5  A    between atoms: C_9  and  C_10
REMARK    6  A    between atoms: C_19  and  C_21
REMARK    7  A    between atoms: N_23  and  CA_24
REMARK    8  A    between atoms: CA_24  and  CB_25
REMARK    9  A    between atoms: CA_24  and  C_30
REMARK   10  A    between atoms: CB_25  and  CG_26
REMARK   11  A    between atoms: CG_26  and  CD_27
REMARK   12  A    between atoms: CD_27  and  OE1_28
REMARK   13  A    between atoms: C_30  and  O_31
REMARK                            x       y       z     vdW  Elec       q    Type
REMARK                         _______ _______ _______ _____ _____    ______ ____
ROOT
ATOM      1  C   UNK A   0      -0.338  -1.092  -0.408  0.00  0.00    +0.069 A 
ATOM      2  C   UNK A   0       0.483  -2.059  -1.010  0.00  0.00    +0.032 A 
ATOM      3  C   UNK A   0       1.840  -1.763  -0.926  0.00  0.00    +0.022 A 
ATOM      4  C   UNK A   0       2.095  -0.631  -0.152  0.00  0.00    +0.076 A 
ATOM      5  S   UNK A   0       0.642   0.074   0.302  0.00  0.00    -0.069 S 
ENDROOT
BRANCH   4   6
ATOM      6  C   UNK A   0       3.402  -0.264   0.378  0.00  0.00    +0.251 C 
ATOM      7  O   UNK A   0       3.451   0.590   1.330  0.00  0.00    -0.270 OA
ATOM      8  N   GLU A   1       4.519  -1.092   0.094  0.00  0.00    -0.298 N 
ATOM      9  H   GLU A   1       4.520  -2.049   0.493  0.00  0.00    +0.150 HD
BRANCH   8  10
ATOM     10  CA  GLU A   1       5.691  -0.691  -0.703  0.00  0.00    +0.182 C 
BRANCH  10  11
ATOM     11  C   GLU A   1       5.835  -1.733  -1.755  0.00  0.00    +0.325 C 
ATOM     12  OXT GLU A   1       5.826  -2.916  -1.381  0.00  0.00    -0.249 OA
BRANCH  11  13
ATOM     13  O   GLU A   1       6.287  -1.469  -3.064  0.00  0.00    -0.479 OA
ATOM     14  H   GLU A   1       6.396  -0.510  -3.402  0.00  0.00    +0.295 HD
ENDBRANCH  11  13
ENDBRANCH  10  11
BRANCH  10  15
ATOM     15  CB  GLU A   1       6.963  -0.738   0.191  0.00  0.00    +0.045 C 
BRANCH  15  16
ATOM     16  CG  GLU A   1       7.653   0.614   0.449  0.00  0.00    +0.123 C 
BRANCH  16  17
ATOM     17  CD  GLU A   1       8.350   1.112  -0.811  0.00  0.00    +0.305 C 
ATOM     18  OE2 GLU A   1       8.238   2.324  -1.130  0.00  0.00    -0.251 OA
BRANCH  17  19
ATOM     19  OE1 GLU A   1       9.207   0.277  -1.500  0.00  0.00    -0.481 OA
ATOM     20  HE1 GLU A   1       9.677   0.567  -2.353  0.00  0.00    +0.295 HD
ENDBRANCH  17  19
ENDBRANCH  16  17
ENDBRANCH  15  16
ENDBRANCH  10  15
ENDBRANCH   8  10
ENDBRANCH   4   6
BRANCH   1  22
ATOM     21  C   UNK A   0      -2.600  -1.713  -1.292  0.00  0.00    +0.130 C 
ATOM     22  N   UNK A   0      -1.760  -1.214  -0.218  0.00  0.00    -0.323 N 
BRANCH  22  23
ATOM     23  C   UNK A   0      -2.315  -1.065   1.144  0.00  0.00    +0.140 C 
BRANCH  23  24
ATOM     24  C   UNK A   0      -3.678  -0.410   1.140  0.00  0.00    -0.029 A 
ATOM     25  C   UNK A   0      -3.872   0.869   0.574  0.00  0.00    +0.020 A 
ATOM     26  C   UNK A   0      -5.099   1.534   0.754  0.00  0.00    +0.065 A 
ATOM     27  C   UNK A   0      -6.179   0.861   1.413  0.00  0.00    +0.053 A 
ATOM     28  N   UNK A   0      -7.382   1.476   1.558  0.00  0.00    -0.343 N 
ATOM     29  C   UNK A   0      -7.535   2.781   1.221  0.00  0.00    +0.108 A 
ATOM     30  C   UNK A   0      -8.816   3.513   1.487  0.00  0.00    +0.086 C 
ATOM     31  N   UNK A   0      -6.513   3.441   0.622  0.00  0.00    -0.196 NA
ATOM     32  C   UNK A   0      -5.324   2.846   0.350  0.00  0.00    +0.281 A 
ATOM     33  O   UNK A   0      -4.396   3.523  -0.154  0.00  0.00    -0.265 OA
ATOM     34  C   UNK A   0      -5.997  -0.451   1.845  0.00  0.00    +0.027 A 
ATOM     35  C   UNK A   0      -4.751  -1.054   1.768  0.00  0.00    +0.007 A 
ATOM     36  H   UNK A   0      -8.182   0.991   1.997  0.00  0.00    +0.167 HD
ENDBRANCH  23  24
ENDBRANCH  22  23
ENDBRANCH   1  22
TORSDOF 11
