REMARK  Name = 
REMARK  5 active torsions:
REMARK  status: ('A' for Active; 'I' for Inactive)
REMARK    1  A    between atoms: C_1  and  C_2
REMARK    2  A    between atoms: C_2  and  C_3
REMARK    3  A    between atoms: N_5  and  C_6
REMARK    4  A    between atoms: C_6  and  C_7
REMARK    5  A    between atoms: C_7  and  C_8
REMARK                            x       y       z     vdW  Elec       q    Type
REMARK                         _______ _______ _______ _____ _____    ______ ____
ROOT
ATOM      1  C   UNL     1      -0.102  -0.606  -0.865  0.00  0.00    +0.021 C 
ATOM      2  C   UNL     1       0.177  -1.677  -1.952  0.00  0.00    +0.013 C 
ATOM      3  C   UNL     1      -1.185  -2.240  -2.402  0.00  0.00    +0.036 C 
ATOM      4  C   UNL     1      -2.121  -1.768  -1.359  0.00  0.00    -0.043 A 
ATOM      5  C   UNL     1      -1.520  -0.871  -0.500  0.00  0.00    -0.034 A 
ATOM      6  C   UNL     1      -2.243  -0.378   0.590  0.00  0.00    +0.001 A 
ATOM      7  C   UNL     1      -3.541  -0.769   0.784  0.00  0.00    +0.124 A 
ATOM      8  O   UNL     1      -4.070  -0.205   1.923  0.00  0.00    -0.491 OA
ATOM      9  C   UNL     1      -3.091   0.608   2.571  0.00  0.00    +0.234 C 
ATOM     10  C   UNL     1      -1.817   0.525   1.693  0.00  0.00    +0.080 C 
ATOM     11  C   UNL     1      -4.187  -1.654  -0.091  0.00  0.00    +0.046 A 
ATOM     12  C   UNL     1      -3.459  -2.166  -1.184  0.00  0.00    +0.007 A 
ENDROOT
BRANCH   1  13
ATOM     13  C   UNL     1       0.066   0.830  -1.412  0.00  0.00    +0.027 C 
BRANCH  13  14
ATOM     14  C   UNL     1       1.539   1.256  -1.486  0.00  0.00    +0.105 C 
BRANCH  14  17
ATOM     15  C   UNL     1       3.482   1.800   0.036  0.00  0.00    +0.213 C 
ATOM     16  O   UNL     1       4.248   1.921  -0.959  0.00  0.00    -0.276 OA
ATOM     17  N   UNL     1       2.102   1.463  -0.150  0.00  0.00    -0.315 N 
ATOM     18  H   UNL     1       1.495   1.366   0.696  0.00  0.00    +0.149 HD
BRANCH  15  20
ATOM     19  C   UNL     1       4.347   0.610   2.038  0.00  0.00    +0.013 C 
ATOM     20  C   UNL     1       4.035   1.967   1.419  0.00  0.00    +0.092 C 
ENDBRANCH  15  20
ENDBRANCH  14  17
ENDBRANCH  13  14
ENDBRANCH   1  13
TORSDOF 4
