REMARK  Name = 
REMARK  13 active torsions:
REMARK  status: ('A' for Active; 'I' for Inactive)
REMARK    1  A    between atoms: C_7  and  C_9
REMARK    2  A    between atoms: C_9  and  O_10
REMARK    3  A    between atoms: C_12  and  C_14
REMARK    4  A    between atoms: C_14  and  C_15
REMARK    5  A    between atoms: C_14  and  N_16
REMARK    6  A    between atoms: N_16  and  C_17
REMARK    7  A    between atoms: C_17  and  C_18
REMARK    8  A    between atoms: C_17  and  C_26
REMARK    9  A    between atoms: C_18  and  C_19
REMARK   10  A    between atoms: C_19  and  C_20
REMARK   11  A    between atoms: C_26  and  O_28
REMARK   12  A    between atoms: O_28  and  C_29
REMARK   13  A    between atoms: C_29  and  C_30
REMARK                            x       y       z     vdW  Elec       q    Type
REMARK                         _______ _______ _______ _____ _____    ______ ____
ROOT
ATOM      1  C   UNK A   1       0.954   1.649  -0.251  0.00  0.00    +0.138 C 
ATOM      2  C   UNK A   1       1.592   2.865  -0.942  0.00  0.00    +0.034 C 
ENDROOT
BRANCH   1  11
ATOM      3  C   UNK A   1       2.626  -2.550   0.299  0.00  0.00    +0.012 C 
ATOM      4  C   UNK A   1       3.336  -3.215  -0.880  0.00  0.00    +0.005 C 
ATOM      5  C   UNK A   1       3.785  -2.074  -1.773  0.00  0.00    +0.002 C 
ATOM      6  C   UNK A   1       2.743  -0.981  -1.590  0.00  0.00    +0.023 C 
ATOM      7  C   UNK A   1       2.082  -1.226  -0.227  0.00  0.00    +0.080 C 
ATOM      8  N   UNK A   1       2.464  -0.207   0.744  0.00  0.00    -0.283 N 
ATOM      9  C   UNK A   1       3.336  -0.725   1.791  0.00  0.00    +0.185 C 
ATOM     10  C   UNK A   1       3.575  -2.201   1.460  0.00  0.00    +0.039 C 
ATOM     11  C   UNK A   1       1.886   1.117   0.811  0.00  0.00    +0.233 C 
ATOM     12  O   UNK A   1       2.160   1.861   1.793  0.00  0.00    -0.274 OA
BRANCH   9  13
ATOM     13  C   UNK A   1       4.628   0.044   1.829  0.00  0.00    +0.325 C 
ATOM     14  O   UNK A   1       5.117   0.401   2.934  0.00  0.00    -0.249 OA
BRANCH  13  15
ATOM     15  O   UNK A   1       5.306   0.326   0.645  0.00  0.00    -0.479 OA
ATOM     16  H   UNK A   1       6.188   0.824   0.657  0.00  0.00    +0.295 HD
ENDBRANCH  13  15
ENDBRANCH   9  13
ENDBRANCH   1  11
BRANCH   1  17
ATOM     17  N   UNK A   1      -0.333   1.998   0.385  0.00  0.00    -0.294 NA
ATOM     18  H   UNK A   1      -0.288   2.982   0.740  0.00  0.00    +0.123 HD
BRANCH  17  19
ATOM     19  C   UNK A   0      -1.492   1.828  -0.518  0.00  0.00    +0.164 C 
BRANCH  19  20
ATOM     20  C   UNK A   0      -2.655   2.683  -0.077  0.00  0.00    +0.324 C 
ATOM     21  O   UNK A   0      -2.859   2.897   1.151  0.00  0.00    -0.249 OA
BRANCH  20  22
ATOM     22  O   UNK A   0      -3.534   3.188  -1.042  0.00  0.00    -0.464 OA
BRANCH  22  23
ATOM     23  C   UNK A   0      -4.651   4.017  -0.728  0.00  0.00    +0.229 C 
ATOM     24  C   UNK A   0      -4.194   5.435  -0.405  0.00  0.00    +0.048 C 
ENDBRANCH  22  23
ENDBRANCH  20  22
ENDBRANCH  19  20
BRANCH  19  25
ATOM     25  C   UNK A   0      -1.931   0.347  -0.599  0.00  0.00    +0.035 C 
BRANCH  25  26
ATOM     26  C   UNK A   0      -2.104  -0.315   0.779  0.00  0.00    +0.037 C 
BRANCH  26  27
ATOM     27  C   UNK A   0      -2.661  -1.706   0.632  0.00  0.00    -0.047 A 
ATOM     28  C   UNK A   0      -1.801  -2.817   0.565  0.00  0.00    +0.003 A 
ATOM     29  C   UNK A   0      -2.325  -4.103   0.397  0.00  0.00    +0.000 A 
ATOM     30  C   UNK A   0      -3.708  -4.289   0.290  0.00  0.00    +0.000 A 
ATOM     31  C   UNK A   0      -4.569  -3.188   0.347  0.00  0.00    +0.000 A 
ATOM     32  C   UNK A   0      -4.049  -1.901   0.512  0.00  0.00    +0.003 A 
ENDBRANCH  26  27
ENDBRANCH  25  26
ENDBRANCH  19  25
ENDBRANCH  17  19
ENDBRANCH   1  17
TORSDOF 11
