REMARK  Name = 
REMARK  13 active torsions:
REMARK  status: ('A' for Active; 'I' for Inactive)
REMARK    1  A    between atoms: C_1  and  N_2
REMARK    2  A    between atoms: N_2  and  C_3
REMARK    3  A    between atoms: C_3  and  N_4
REMARK    4  A    between atoms: N_4  and  C_5
REMARK    5  A    between atoms: C_5  and  C_6
REMARK    6  A    between atoms: C_6  and  S_7
REMARK    7  A    between atoms: S_7  and  C_8
REMARK    8  A    between atoms: C_8  and  C_9
REMARK    9  A    between atoms: C_12  and  C_13
REMARK   10  A    between atoms: C_13  and  N_14
REMARK   11  A    between atoms: N_14  and  C_15
REMARK   12  A    between atoms: N_14  and  C_16
REMARK   13  A    between atoms: C_18  and  N_19
REMARK                            x       y       z     vdW  Elec       q    Type
REMARK                         _______ _______ _______ _____ _____    ______ ____
ROOT
ATOM      1  C   UNL     1      -1.064   0.261   2.739  0.00  0.00    +0.088 C 
ENDROOT
BRANCH   1   2
ATOM      2  C   UNL     1      -2.493   0.709   3.066  0.00  0.00    +0.113 C 
BRANCH   2   3
ATOM      3  N   UNL     1      -3.155   1.301   1.898  0.00  0.00    -0.330 N 
ATOM      4  H   UNL     1      -3.431   2.302   1.975  0.00  0.00    +0.147 HD
BRANCH   3   5
ATOM      5  C   UNL     1      -3.402   0.615   0.650  0.00  0.00    +0.107 C 
ATOM      6  C   UNL     1      -3.469  -0.732   0.608  0.00  0.00    +0.216 C 
BRANCH   5   8
ATOM      7  C   UNL     1      -3.094   2.729  -0.706  0.00  0.00    +0.126 C 
ATOM      8  N   UNL     1      -3.646   1.393  -0.533  0.00  0.00    -0.334 N 
ATOM      9  H   UNL     1      -4.218   0.998  -1.311  0.00  0.00    +0.147 HD
ENDBRANCH   5   8
BRANCH   6  10
ATOM     10  N   UNL     1      -3.570  -1.476  -0.612  0.00  0.00    +0.052 N 
ATOM     11  O   UNL     1      -4.008  -2.777  -0.550  0.00  0.00    -0.127 OA
ATOM     12  O   UNL     1      -2.971  -1.091  -1.642  0.00  0.00    -0.127 OA
ENDBRANCH   6  10
ENDBRANCH   3   5
ENDBRANCH   2   3
ENDBRANCH   1   2
BRANCH   1  13
ATOM     13  S   UNL     1      -0.066   1.669   2.150  0.00  0.00    -0.151 S 
BRANCH  13  14
ATOM     14  C   UNL     1       1.504   0.743   2.041  0.00  0.00    +0.143 C 
BRANCH  14  15
ATOM     15  C   UNL     1       1.531  -0.102   0.808  0.00  0.00    +0.115 A 
ATOM     16  C   UNL     1       1.290  -1.462   0.751  0.00  0.00    +0.046 A 
ATOM     17  C   UNL     1       1.418  -1.809  -0.576  0.00  0.00    +0.046 A 
ATOM     18  C   UNL     1       1.729  -0.637  -1.241  0.00  0.00    +0.119 A 
ATOM     19  O   UNL     1       1.784   0.363  -0.393  0.00  0.00    -0.462 OA
BRANCH  18  20
ATOM     20  C   UNL     1       2.002  -0.507  -2.716  0.00  0.00    +0.158 C 
BRANCH  20  21
ATOM     21  N   UNL     1       3.436  -0.625  -3.060  0.00  0.00    -0.301 NA
ATOM     22  C   UNL     1       3.978  -1.955  -2.742  0.00  0.00    +0.105 C 
ATOM     23  C   UNL     1       4.247   0.434  -2.441  0.00  0.00    +0.105 C 
ENDBRANCH  20  21
ENDBRANCH  18  20
ENDBRANCH  14  15
ENDBRANCH  13  14
ENDBRANCH   1  13
TORSDOF 10
