REMARK  Name = 
REMARK  13 active torsions:
REMARK  status: ('A' for Active; 'I' for Inactive)
REMARK    1  A    between atoms: C_1  and  O_2
REMARK    2  A    between atoms: O_2  and  C_3
REMARK    3  A    between atoms: C_8  and  O_9
REMARK    4  A    between atoms: O_9  and  C_10
REMARK    5  A    between atoms: C_10  and  C_11
REMARK    6  A    between atoms: C_11  and  O_12
REMARK    7  A    between atoms: C_11  and  C_13
REMARK    8  A    between atoms: C_13  and  N_14
REMARK    9  A    between atoms: N_17  and  C_18
REMARK   10  A    between atoms: C_18  and  C_19
REMARK   11  A    between atoms: N_21  and  C_22
REMARK   12  A    between atoms: C_23  and  C_24
REMARK   13  A    between atoms: C_28  and  C_29
REMARK                            x       y       z     vdW  Elec       q    Type
REMARK                         _______ _______ _______ _____ _____    ______ ____
ROOT
ATOM      1  N   UNL     1       0.684   0.634   1.560  0.00  0.00    -0.297 NA
ATOM      2  C   UNL     1       0.269   1.583   0.495  0.00  0.00    +0.100 C 
ATOM      3  C   UNL     1      -1.102   2.203   0.791  0.00  0.00    +0.100 C 
ATOM      4  N   UNL     1      -2.161   1.169   0.819  0.00  0.00    -0.292 NA
ATOM      5  C   UNL     1      -1.693  -0.139   1.349  0.00  0.00    +0.100 C 
ATOM      6  C   UNL     1      -0.463   0.003   2.260  0.00  0.00    +0.100 C 
ENDROOT
BRANCH   1   7
ATOM      7  C   UNL     1       1.632  -0.382   1.048  0.00  0.00    +0.119 C 
BRANCH   7   8
ATOM      8  C   UNL     1       2.978   0.252   0.633  0.00  0.00    +0.166 C 
BRANCH   8   9
ATOM      9  O   UNL     1       3.493   1.052   1.669  0.00  0.00    -0.387 OA
ATOM     10  H   UNL     1       3.644   0.464   2.455  0.00  0.00    +0.210 HD
ENDBRANCH   8   9
BRANCH   8  11
ATOM     11  C   UNL     1       3.994  -0.822   0.226  0.00  0.00    +0.261 C 
BRANCH  11  12
ATOM     12  O   UNL     1       5.214  -0.200  -0.168  0.00  0.00    -0.486 OA
BRANCH  12  18
ATOM     13  C   UNL     1       7.509  -0.146  -0.908  0.00  0.00    +0.161 A 
ATOM     14  C   UNL     1       8.683  -0.814  -1.308  0.00  0.00    +0.049 A 
ATOM     15  C   UNL     1       8.714  -2.209  -1.369  0.00  0.00    +0.004 A 
ATOM     16  C   UNL     1       7.581  -2.950  -1.036  0.00  0.00    +0.004 A 
ATOM     17  C   UNL     1       6.411  -2.299  -0.638  0.00  0.00    +0.049 A 
ATOM     18  C   UNL     1       6.367  -0.892  -0.570  0.00  0.00    +0.162 A 
BRANCH  13  20
ATOM     19  C   UNL     1       8.513   2.135  -1.139  0.00  0.00    +0.277 C 
ATOM     20  O   UNL     1       7.437   1.254  -0.832  0.00  0.00    -0.491 OA
ENDBRANCH  13  20
ENDBRANCH  12  18
ENDBRANCH  11  12
ENDBRANCH   8  11
ENDBRANCH   7   8
ENDBRANCH   1   7
BRANCH   4  21
ATOM     21  C   UNL     1      -3.351   1.667   1.537  0.00  0.00    +0.180 C 
BRANCH  21  22
ATOM     22  C   UNL     1      -4.568   0.889   1.134  0.00  0.00    +0.231 C 
ATOM     23  O   UNL     1      -5.288   0.358   2.022  0.00  0.00    -0.274 OA
ATOM     24  N   UNL     1      -4.924   0.782  -0.250  0.00  0.00    -0.284 N 
ATOM     25  H   UNL     1      -4.466   1.422  -0.936  0.00  0.00    +0.155 HD
BRANCH  24  26
ATOM     26  C   UNL     1      -6.019  -0.033  -0.696  0.00  0.00    +0.039 A 
ATOM     27  C   UNL     1      -5.960  -1.443  -0.587  0.00  0.00    -0.029 A 
ATOM     28  C   UNL     1      -4.751  -2.135  -0.016  0.00  0.00    +0.045 C 
ATOM     29  C   UNL     1      -7.051  -2.214  -1.014  0.00  0.00    +0.005 A 
ATOM     30  C   UNL     1      -8.170  -1.606  -1.583  0.00  0.00    +0.001 A 
ATOM     31  C   UNL     1      -8.217  -0.220  -1.726  0.00  0.00    +0.005 A 
ATOM     32  C   UNL     1      -7.152   0.578  -1.279  0.00  0.00    -0.029 A 
ATOM     33  C   UNL     1      -7.223   2.072  -1.441  0.00  0.00    +0.045 C 
ENDBRANCH  24  26
ENDBRANCH  21  22
ENDBRANCH   4  21
TORSDOF 10
