REMARK  Name = 
REMARK  3 active torsions:
REMARK  status: ('A' for Active; 'I' for Inactive)
REMARK    1  A    between atoms: C_2  and  C_3
REMARK    2  A    between atoms: C_3  and  N_4
REMARK    3  A    between atoms: N_4  and  C_5
REMARK                            x       y       z     vdW  Elec       q    Type
REMARK                         _______ _______ _______ _____ _____    ______ ____
ROOT
ATOM      1  C   UNL     1       0.659   0.752  -0.202  0.00  0.00    +0.085 C 
ATOM      2  C   UNL     1       0.018   2.154  -0.053  0.00  0.00    +0.028 C 
ATOM      3  C   UNL     1      -1.377   1.946   0.560  0.00  0.00    +0.037 C 
ATOM      4  C   UNL     1      -1.653   0.518   0.293  0.00  0.00    -0.043 A 
ATOM      5  C   UNL     1      -2.887  -0.128   0.398  0.00  0.00    +0.004 A 
ATOM      6  C   UNL     1      -2.980  -1.473   0.011  0.00  0.00    +0.000 A 
ATOM      7  C   UNL     1      -1.850  -2.142  -0.492  0.00  0.00    +0.000 A 
ATOM      8  C   UNL     1      -0.620  -1.474  -0.590  0.00  0.00    +0.005 A 
ATOM      9  C   UNL     1      -0.535  -0.146  -0.155  0.00  0.00    -0.027 A 
ENDROOT
BRANCH   1  10
ATOM     10  N   UNL     1       1.575   0.502   0.931  0.00  0.00    -0.299 NA
ATOM     11  H   UNL     1       2.285   1.272   0.963  0.00  0.00    +0.123 HD
BRANCH  10  12
ATOM     12  C   UNL     1       2.313  -0.769   0.848  0.00  0.00    +0.171 C 
BRANCH  12  14
ATOM     13  C   UNL     1       3.907  -0.878  -1.301  0.00  0.00    +0.005 C 
ATOM     14  C   UNL     1       3.190  -0.829  -0.334  0.00  0.00    -0.090 C 
ENDBRANCH  12  14
ENDBRANCH  10  12
ENDBRANCH   1  10
TORSDOF 3
