REMARK  Name = 
REMARK  7 active torsions:
REMARK  status: ('A' for Active; 'I' for Inactive)
REMARK    1  A    between atoms: C_1  and  C_7
REMARK    2  A    between atoms: C_7  and  O_8
REMARK    3  A    between atoms: C_7  and  C_18
REMARK    4  A    between atoms: O_8  and  C_9
REMARK    5  A    between atoms: C_14  and  O_15
REMARK    6  A    between atoms: O_15  and  C_16
REMARK    7  A    between atoms: C_16  and  C_17
REMARK                            x       y       z     vdW  Elec       q    Type
REMARK                         _______ _______ _______ _____ _____    ______ ____
ROOT
ATOM      1  C   UNL     1       1.048   0.457  -0.566  0.00  0.00    +0.234 C 
ENDROOT
BRANCH   1   2
ATOM      2  C   UNL     1       2.154  -0.585  -0.310  0.00  0.00    +0.177 C 
ATOM      3  C   UNL     1       1.944  -1.831  -1.209  0.00  0.00    +0.116 C 
ATOM      4  N   UNL     1       3.012  -2.826  -1.016  0.00  0.00    -0.311 NA
ATOM      5  C   UNL     1       3.611  -2.777   0.329  0.00  0.00    +0.109 C 
ATOM      6  C   UNL     1       2.624  -2.220   1.365  0.00  0.00    +0.175 C 
ATOM      7  O   UNL     1       2.199  -0.895   1.081  0.00  0.00    -0.370 OA
ATOM      8  H   UNL     1       3.770  -2.644  -1.715  0.00  0.00    +0.122 HD
ENDBRANCH   1   2
BRANCH   1   9
ATOM      9  C   UNL     1       1.369   1.754   0.149  0.00  0.00    -0.005 A 
ATOM     10  C   UNL     1       1.025   1.942   1.501  0.00  0.00    +0.007 A 
ATOM     11  C   UNL     1       1.348   3.136   2.153  0.00  0.00    +0.000 A 
ATOM     12  C   UNL     1       2.024   4.148   1.466  0.00  0.00    +0.000 A 
ATOM     13  C   UNL     1       2.383   3.966   0.129  0.00  0.00    +0.000 A 
ATOM     14  C   UNL     1       2.062   2.773  -0.527  0.00  0.00    +0.007 A 
ENDBRANCH   1   9
BRANCH   1  15
ATOM     15  O   UNL     1      -0.210  -0.069  -0.130  0.00  0.00    -0.478 OA
BRANCH  15  16
ATOM     16  C   UNL     1      -1.469   0.497  -0.393  0.00  0.00    +0.163 A 
ATOM     17  C   UNL     1      -1.625   1.655  -1.181  0.00  0.00    +0.049 A 
ATOM     18  C   UNL     1      -2.896   2.184  -1.412  0.00  0.00    +0.004 A 
ATOM     19  C   UNL     1      -4.021   1.567  -0.864  0.00  0.00    +0.004 A 
ATOM     20  C   UNL     1      -3.879   0.418  -0.083  0.00  0.00    +0.049 A 
ATOM     21  C   UNL     1      -2.602  -0.127   0.156  0.00  0.00    +0.162 A 
BRANCH  21  22
ATOM     22  O   UNL     1      -2.407  -1.279   0.938  0.00  0.00    -0.489 OA
BRANCH  22  23
ATOM     23  C   UNL     1      -3.439  -2.107   1.474  0.00  0.00    +0.226 C 
ATOM     24  C   UNL     1      -4.053  -2.979   0.385  0.00  0.00    +0.048 C 
ENDBRANCH  22  23
ENDBRANCH  21  22
ENDBRANCH  15  16
ENDBRANCH   1  15
TORSDOF 6
