REMARK  Name = 
REMARK  7 active torsions:
REMARK  status: ('A' for Active; 'I' for Inactive)
REMARK    1  A    between atoms: C_1  and  N_2
REMARK    2  A    between atoms: C_3  and  C_5
REMARK    3  A    between atoms: C_7  and  O_8
REMARK    4  A    between atoms: O_8  and  C_9
REMARK    5  A    between atoms: C_13  and  N_14
REMARK    6  A    between atoms: N_17  and  C_18
REMARK    7  A    between atoms: C_23  and  C_25
REMARK                            x       y       z     vdW  Elec       q    Type
REMARK                         _______ _______ _______ _____ _____    ______ ____
ROOT
ATOM      1  C   UNL     1       1.577   0.411  -0.190  0.00  0.00    +0.131 A 
ATOM      2  C   UNL     1       1.479  -0.923   0.242  0.00  0.00    +0.086 A 
ATOM      3  C   UNL     1       0.231  -1.481   0.536  0.00  0.00    +0.148 A 
ATOM      4  F   UNL     1       0.161  -2.770   0.953  0.00  0.00    -0.203 F 
ATOM      5  C   UNL     1      -0.941  -0.723   0.377  0.00  0.00    +0.070 A 
ATOM      6  C   UNL     1      -0.839   0.612  -0.055  0.00  0.00    +0.030 A 
ATOM      7  C   UNL     1       0.410   1.166  -0.348  0.00  0.00    +0.048 A 
ENDROOT
BRANCH   5   8
ATOM      8  N   UNL     1      -2.215  -1.303   0.708  0.00  0.00    -0.267 N 
ATOM      9  C   UNL     1      -3.438  -1.004   0.017  0.00  0.00    +0.308 C 
ATOM     10  O   UNL     1      -3.409  -0.397  -1.089  0.00  0.00    -0.252 OA
ATOM     11  N   UNL     1      -4.685  -1.470   0.552  0.00  0.00    -0.269 N 
ATOM     12  H   UNL     1      -2.246  -2.037   1.451  0.00  0.00    +0.156 HD
ATOM     13  H   UNL     1      -4.651  -2.211   1.289  0.00  0.00    +0.156 HD
BRANCH  11  14
ATOM     14  C   UNL     1      -5.975  -1.061   0.064  0.00  0.00    +0.035 A 
ATOM     15  C   UNL     1      -7.039  -1.970   0.098  0.00  0.00    +0.025 A 
ATOM     16  C   UNL     1      -8.305  -1.593  -0.351  0.00  0.00    +0.022 A 
ATOM     17  C   UNL     1      -8.532  -0.298  -0.828  0.00  0.00    +0.053 A 
ATOM     18 CL   UNL     1     -10.156   0.107  -1.375  0.00  0.00    -0.083 Cl
ATOM     19  C   UNL     1      -7.478   0.643  -0.850  0.00  0.00    +0.075 A 
ATOM     20  C   UNL     1      -6.205   0.249  -0.391  0.00  0.00    +0.037 A 
BRANCH  19  21
ATOM     21  C   UNL     1      -7.715   2.055  -1.345  0.00  0.00    +0.419 C 
ATOM     22  F   UNL     1      -6.560   2.817  -1.301  0.00  0.00    -0.166 F 
ATOM     23  F   UNL     1      -8.670   2.669  -0.555  0.00  0.00    -0.166 F 
ATOM     24  F   UNL     1      -8.160   2.020  -2.654  0.00  0.00    -0.166 F 
ENDBRANCH  19  21
ENDBRANCH  11  14
ENDBRANCH   5   8
BRANCH   1  25
ATOM     25  O   UNL     1       2.809   1.000  -0.510  0.00  0.00    -0.456 OA
BRANCH  25  28
ATOM     26  C   UNL     1       6.455   0.549  -0.076  0.00  0.00    +0.129 A 
ATOM     27  C   UNL     1       5.209   0.836  -0.660  0.00  0.00    +0.079 A 
ATOM     28  C   UNL     1       4.038   0.692   0.091  0.00  0.00    +0.132 A 
ATOM     29  C   UNL     1       4.131   0.290   1.433  0.00  0.00    +0.066 A 
ATOM     30  C   UNL     1       5.383   0.014   1.982  0.00  0.00    +0.115 A 
ATOM     31  N   UNL     1       6.504   0.146   1.224  0.00  0.00    -0.250 NA
BRANCH  26  34
ATOM     32  C   UNL     1      10.226   0.509  -0.985  0.00  0.00    +0.128 C 
ATOM     33  N   UNL     1       8.976   0.387  -0.244  0.00  0.00    -0.313 N 
ATOM     34  C   UNL     1       7.709   0.681  -0.851  0.00  0.00    +0.262 C 
ATOM     35  O   UNL     1       7.666   1.055  -2.055  0.00  0.00    -0.269 OA
ATOM     36  H   UNL     1       9.021   0.077   0.753  0.00  0.00    +0.149 HD
ENDBRANCH  26  34
ENDBRANCH  25  28
ENDBRANCH   1  25
TORSDOF 6
