REMARK  Name = 
REMARK  21 active torsions:
REMARK  status: ('A' for Active; 'I' for Inactive)
REMARK    1  A    between atoms: C_1  and  C_2
REMARK    2  A    between atoms: C_2  and  C_3
REMARK    3  A    between atoms: C_2  and  C_4
REMARK    4  A    between atoms: C_2  and  S_5
REMARK    5  A    between atoms: S_5  and  C_8
REMARK    6  A    between atoms: C_8  and  C_9
REMARK    7  A    between atoms: C_9  and  C_10
REMARK    8  A    between atoms: C_9  and  C_17
REMARK    9  A    between atoms: C_10  and  C_11
REMARK   10  A    between atoms: N_19  and  C_20
REMARK   11  A    between atoms: C_20  and  C_21
REMARK   12  A    between atoms: C_20  and  C_27
REMARK   13  A    between atoms: C_21  and  C_22
REMARK   14  A    between atoms: N_29  and  C_30
REMARK   15  A    between atoms: C_30  and  C_31
REMARK   16  A    between atoms: C_30  and  C_38
REMARK   17  A    between atoms: C_31  and  C_32
REMARK   18  A    between atoms: C_38  and  O_39
REMARK   19  A    between atoms: C_38  and  C_40
REMARK   20  A    between atoms: C_40  and  O_41
REMARK   21  A    between atoms: C_40  and  C_42
REMARK                            x       y       z     vdW  Elec       q    Type
REMARK                         _______ _______ _______ _____ _____    ______ ____
ROOT
ATOM      1  C   UNL     1       0.085   1.203  -1.970  0.00  0.00    +0.165 C 
ENDROOT
BRANCH   1   4
ATOM      2  C   UNL     1      -0.959  -1.018  -1.187  0.00  0.00    +0.219 C 
ATOM      3  O   UNL     1      -0.420  -0.917  -0.055  0.00  0.00    -0.275 OA
ATOM      4  N   UNL     1      -0.670  -0.040  -2.204  0.00  0.00    -0.303 N 
ATOM      5  H   UNL     1      -1.031  -0.212  -3.169  0.00  0.00    +0.149 HD
BRANCH   2   6
ATOM      6  C   UNL     1      -1.925  -2.148  -1.480  0.00  0.00    +0.100 C 
BRANCH   6   7
ATOM      7  C   UNL     1      -3.350  -1.581  -1.685  0.00  0.00    +0.179 C 
BRANCH   7   8
ATOM      8  S   UNL     1      -4.421  -2.673  -2.628  0.00  0.00    -0.025 S 
ATOM      9  O   UNL     1      -3.759  -2.988  -3.941  0.00  0.00    -0.174 OA
ATOM     10  O   UNL     1      -4.644  -3.957  -1.880  0.00  0.00    -0.174 OA
BRANCH   8  12
ATOM     11  C   UNL     1      -5.837  -0.615  -3.764  0.00  0.00    +0.035 C 
ATOM     12  C   UNL     1      -6.024  -1.904  -2.944  0.00  0.00    +0.079 C 
ATOM     13  C   UNL     1      -6.711  -1.571  -1.608  0.00  0.00    +0.035 C 
ATOM     14  C   UNL     1      -6.902  -2.888  -3.738  0.00  0.00    +0.035 C 
ENDBRANCH   8  12
ENDBRANCH   7   8
ENDBRANCH   6   7
BRANCH   6  15
ATOM     15  C   UNL     1      -1.839  -3.313  -0.447  0.00  0.00    +0.049 C 
BRANCH  15  16
ATOM     16  C   UNL     1      -2.270  -2.972   0.969  0.00  0.00    -0.047 A 
ATOM     17  C   UNL     1      -3.631  -2.963   1.324  0.00  0.00    +0.003 A 
ATOM     18  C   UNL     1      -4.022  -2.631   2.625  0.00  0.00    +0.000 A 
ATOM     19  C   UNL     1      -3.060  -2.330   3.591  0.00  0.00    +0.000 A 
ATOM     20  C   UNL     1      -1.704  -2.378   3.263  0.00  0.00    +0.000 A 
ATOM     21  C   UNL     1      -1.309  -2.711   1.964  0.00  0.00    +0.003 A 
ENDBRANCH  15  16
ENDBRANCH   6  15
ENDBRANCH   2   6
ENDBRANCH   1   4
BRANCH   1  22
ATOM     22  C   UNL     1       1.424   0.922  -1.309  0.00  0.00    +0.234 C 
ATOM     23  O   UNL     1       1.971  -0.196  -1.516  0.00  0.00    -0.274 OA
ATOM     24  N   UNL     1       2.134   1.924  -0.559  0.00  0.00    -0.308 N 
ATOM     25  H   UNL     1       1.722   2.874  -0.447  0.00  0.00    +0.149 HD
BRANCH  24  26
ATOM     26  C   UNL     1       3.411   1.651   0.118  0.00  0.00    +0.104 C 
BRANCH  26  27
ATOM     27  C   UNL     1       3.187   1.476   1.639  0.00  0.00    +0.028 C 
BRANCH  27  28
ATOM     28  C   UNL     1       2.313   0.246   2.015  0.00  0.00    -0.009 C 
ATOM     29  C   UNL     1       3.019  -1.114   1.795  0.00  0.00    +0.003 C 
ATOM     30  C   UNL     1       4.114  -1.387   2.836  0.00  0.00    +0.000 C 
ATOM     31  C   UNL     1       3.562  -1.280   4.261  0.00  0.00    +0.000 C 
ATOM     32  C   UNL     1       2.901   0.081   4.498  0.00  0.00    +0.000 C 
ATOM     33  C   UNL     1       1.795   0.343   3.467  0.00  0.00    +0.003 C 
ENDBRANCH  27  28
ENDBRANCH  26  27
BRANCH  26  34
ATOM     34  C   UNL     1       4.425   2.790  -0.169  0.00  0.00    +0.163 C 
BRANCH  34  35
ATOM     35  O   UNL     1       3.923   4.015   0.311  0.00  0.00    -0.387 OA
ATOM     36  H   UNL     1       4.268   4.133   1.235  0.00  0.00    +0.210 HD
ENDBRANCH  34  35
BRANCH  34  37
ATOM     37  C   UNL     1       4.729   2.925  -1.684  0.00  0.00    +0.148 C 
BRANCH  37  38
ATOM     38  C   UNL     1       5.715   4.093  -1.942  0.00  0.00    +0.020 C 
ATOM     39  C   UNL     1       7.208   3.796  -1.937  0.00  0.00    +0.006 C 
ATOM     40  C   UNL     1       6.488   4.053  -3.254  0.00  0.00    +0.006 C 
ENDBRANCH  37  38
BRANCH  37  41
ATOM     41  O   UNL     1       5.164   1.707  -2.247  0.00  0.00    -0.389 OA
ATOM     42  H   UNL     1       5.822   1.294  -1.629  0.00  0.00    +0.210 HD
ENDBRANCH  37  41
ENDBRANCH  34  37
ENDBRANCH  26  34
ENDBRANCH  24  26
ENDBRANCH   1  22
BRANCH   1  43
ATOM     43  C   UNL     1      -0.813   2.271  -1.292  0.00  0.00    +0.086 C 
BRANCH  43  44
ATOM     44  C   UNL     1      -1.335   1.893   0.067  0.00  0.00    +0.038 A 
ATOM     45  C   UNL     1      -2.566   1.335   0.340  0.00  0.00    +0.133 A 
ATOM     46  N   UNL     1      -2.675   1.129   1.667  0.00  0.00    -0.244 NA
ATOM     47  C   UNL     1      -1.507   1.581   2.171  0.00  0.00    +0.196 A 
ATOM     48  N   UNL     1      -0.678   2.060   1.225  0.00  0.00    -0.348 N 
ATOM     49  H   UNL     1       0.260   2.489   1.374  0.00  0.00    +0.166 HD
ENDBRANCH  43  44
ENDBRANCH   1  43
TORSDOF 18
