REMARK  Name = 
REMARK  12 active torsions:
REMARK  status: ('A' for Active; 'I' for Inactive)
REMARK    1  A    between atoms: C_1  and  C_2
REMARK    2  A    between atoms: C_2  and  C_3
REMARK    3  A    between atoms: N_5  and  C_6
REMARK    4  A    between atoms: N_5  and  C_12
REMARK    5  A    between atoms: C_12  and  C_24
REMARK    6  A    between atoms: N_15  and  C_16
REMARK    7  A    between atoms: C_16  and  C_17
REMARK    8  A    between atoms: C_17  and  C_18
REMARK    9  A    between atoms: C_18  and  O_20
REMARK   10  A    between atoms: O_20  and  C_21
REMARK   11  A    between atoms: C_24  and  O_26
REMARK   12  A    between atoms: O_26  and  C_27
REMARK                            x       y       z     vdW  Elec       q    Type
REMARK                         _______ _______ _______ _____ _____    ______ ____
ROOT
ATOM      1  C   UNL     1      -0.888  -0.241  -0.648  0.00  0.00    +0.141 C 
ATOM      2  C   UNL     1      -0.110  -0.717   0.630  0.00  0.00    +0.053 C 
ATOM      3  C   UNL     1       0.917   0.322   1.105  0.00  0.00    +0.087 C 
ATOM      4  N   UNL     1       1.966   0.600   0.086  0.00  0.00    -0.302 NA
ATOM      5  C   UNL     1       1.543   0.303  -1.303  0.00  0.00    +0.087 C 
ATOM      6  C   UNL     1       0.064   0.643  -1.524  0.00  0.00    +0.053 C 
ENDROOT
BRANCH   1   9
ATOM      7  C   UNL     1      -2.815   1.332  -1.321  0.00  0.00    +0.220 C 
ATOM      8  O   UNL     1      -3.210   2.495  -1.036  0.00  0.00    -0.275 OA
ATOM      9  N   UNL     1      -2.111   0.557  -0.321  0.00  0.00    -0.255 N 
BRANCH   9  10
ATOM     10  C   UNL     1      -2.635   0.647   1.017  0.00  0.00    +0.037 A 
ATOM     11  C   UNL     1      -3.507  -0.339   1.502  0.00  0.00    +0.023 A 
ATOM     12  C   UNL     1      -4.032  -0.240   2.795  0.00  0.00    +0.002 A 
ATOM     13  C   UNL     1      -3.697   0.849   3.605  0.00  0.00    +0.000 A 
ATOM     14  C   UNL     1      -2.843   1.845   3.121  0.00  0.00    +0.002 A 
ATOM     15  C   UNL     1      -2.317   1.748   1.828  0.00  0.00    +0.023 A 
ENDBRANCH   9  10
BRANCH   7  17
ATOM     16  C   UNL     1      -4.502  -0.034  -2.539  0.00  0.00    +0.013 C 
ATOM     17  C   UNL     1      -3.206   0.760  -2.657  0.00  0.00    +0.093 C 
ENDBRANCH   7  17
ENDBRANCH   1   9
BRANCH   1  18
ATOM     18  C   UNL     1      -1.299  -1.502  -1.388  0.00  0.00    +0.331 C 
ATOM     19  O   UNL     1      -2.247  -2.204  -0.941  0.00  0.00    -0.248 OA
BRANCH  18  20
ATOM     20  O   UNL     1      -0.582  -1.933  -2.510  0.00  0.00    -0.466 OA
ATOM     21  C   UNL     1      -0.938  -3.097  -3.246  0.00  0.00    +0.280 C 
ENDBRANCH  18  20
ENDBRANCH   1  18
BRANCH   4  22
ATOM     22  C   UNL     1       3.246  -0.072   0.397  0.00  0.00    +0.095 C 
BRANCH  22  23
ATOM     23  C   UNL     1       4.027   0.722   1.451  0.00  0.00    +0.136 C 
BRANCH  23  24
ATOM     24  C   UNL     1       5.377   0.116   1.679  0.00  0.00    +0.308 C 
ATOM     25  O   UNL     1       5.473  -0.996   2.269  0.00  0.00    -0.251 OA
BRANCH  24  26
ATOM     26  O   UNL     1       6.519   0.785   1.225  0.00  0.00    -0.468 OA
ATOM     27  C   UNL     1       7.830   0.251   1.374  0.00  0.00    +0.280 C 
ENDBRANCH  24  26
ENDBRANCH  23  24
ENDBRANCH  22  23
ENDBRANCH   4  22
TORSDOF 9
