REMARK  Name = 
REMARK  9 active torsions:
REMARK  status: ('A' for Active; 'I' for Inactive)
REMARK    1  A    between atoms: C_1  and  C_2
REMARK    2  A    between atoms: C_2  and  N_3
REMARK    3  A    between atoms: C_7  and  C_8
REMARK    4  A    between atoms: C_8  and  N_9
REMARK    5  A    between atoms: C_10  and  C_12
REMARK    6  A    between atoms: C_13  and  O_14
REMARK    7  A    between atoms: O_14  and  C_15
REMARK    8  A    between atoms: C_20  and  O_21
REMARK    9  A    between atoms: O_21  and  C_22
REMARK                            x       y       z     vdW  Elec       q    Type
REMARK                         _______ _______ _______ _____ _____    ______ ____
ROOT
ATOM      1  N   UNL     1       3.630   1.542   1.518  0.00  0.00    -0.310 N 
ATOM      2  C   UNL     1       4.511   1.615   0.461  0.00  0.00    +0.251 C 
ATOM      3  O   UNL     1       5.112   0.592   0.117  0.00  0.00    -0.270 OA
ATOM      4  H   UNL     1       3.490   0.605   1.886  0.00  0.00    +0.149 HD
ENDROOT
BRANCH   2   5
ATOM      5  C   UNL     1       4.728   2.921  -0.252  0.00  0.00    +0.121 A 
ATOM      6  C   UNL     1       4.889   4.105   0.521  0.00  0.00    +0.136 A 
ATOM      7  C   UNL     1       4.955   5.334  -0.120  0.00  0.00    +0.048 A 
ATOM      8  C   UNL     1       4.973   5.398  -1.501  0.00  0.00    +0.022 A 
ATOM      9  C   UNL     1       4.908   4.247  -2.291  0.00  0.00    +0.060 A 
ATOM     10 BR   UNL     1       5.037   4.703  -4.144  0.00  0.00    -0.046 Br
ATOM     11  C   UNL     1       4.763   2.978  -1.687  0.00  0.00    +0.150 A 
BRANCH   6  12
ATOM     12  O   UNL     1       4.976   4.009   1.891  0.00  0.00    -0.494 OA
ATOM     13  C   UNL     1       4.890   5.211   2.654  0.00  0.00    +0.277 C 
ENDBRANCH   6  12
BRANCH  11  14
ATOM     14  O   UNL     1       4.622   1.771  -2.332  0.00  0.00    -0.493 OA
ATOM     15  C   UNL     1       4.728   1.705  -3.746  0.00  0.00    +0.277 C 
ENDBRANCH  11  14
ENDBRANCH   2   5
BRANCH   1  16
ATOM     16  C   UNL     1       2.670   2.538   1.992  0.00  0.00    +0.123 C 
BRANCH  16  21
ATOM     17  N   UNL     1       0.982   0.804   2.331  0.00  0.00    -0.298 NA
ATOM     18  C   UNL     1       0.057   1.079   3.443  0.00  0.00    +0.085 C 
ATOM     19  C   UNL     1      -0.807   2.215   2.927  0.00  0.00    +0.017 C 
ATOM     20  C   UNL     1       0.190   3.092   2.198  0.00  0.00    +0.022 C 
ATOM     21  C   UNL     1       1.243   2.110   1.706  0.00  0.00    +0.074 C 
BRANCH  17  23
ATOM     22  C   UNL     1       0.951  -0.078  -0.051  0.00  0.00    +0.020 C 
ATOM     23  C   UNL     1       0.472  -0.214   1.397  0.00  0.00    +0.081 C 
ENDBRANCH  17  23
ENDBRANCH  16  21
ENDBRANCH   1  16
TORSDOF 6
