REMARK  Name = 
REMARK  14 active torsions:
REMARK  status: ('A' for Active; 'I' for Inactive)
REMARK    1  A    between atoms: C_1  and  C_2
REMARK    2  A    between atoms: C_2  and  O_3
REMARK    3  A    between atoms: O_3  and  C_4
REMARK    4  A    between atoms: C_5  and  C_31
REMARK    5  A    between atoms: C_8  and  C_9
REMARK    6  A    between atoms: C_9  and  C_10
REMARK    7  A    between atoms: N_12  and  C_13
REMARK    8  A    between atoms: C_13  and  C_14
REMARK    9  A    between atoms: C_13  and  C_18
REMARK   10  A    between atoms: C_14  and  C_15
REMARK   11  A    between atoms: C_15  and  C_16
REMARK   12  A    between atoms: C_15  and  C_17
REMARK   13  A    between atoms: C_23  and  N_24
REMARK   14  A    between atoms: C_31  and  O_32
REMARK                            x       y       z     vdW  Elec       q    Type
REMARK                         _______ _______ _______ _____ _____    ______ ____
ROOT
ATOM      1  C   UNL     1       0.369   1.401   1.441  0.00  0.00    +0.218 C 
ATOM      2  O   UNL     1      -0.347   2.088   0.664  0.00  0.00    -0.275 OA
ATOM      3  N   UNL     1       0.190  -0.021   1.530  0.00  0.00    -0.308 N 
ATOM      4  H   UNL     1       0.856  -0.554   2.134  0.00  0.00    +0.149 HD
ENDROOT
BRANCH   1   5
ATOM      5  C   UNL     1       1.425   2.081   2.257  0.00  0.00    +0.131 C 
BRANCH   5  10
ATOM      6  C   UNL     1       4.785   1.421   0.560  0.00  0.00    +0.135 A 
ATOM      7  C   UNL     1       4.970   2.622  -0.167  0.00  0.00    +0.100 A 
ATOM      8  C   UNL     1       3.988   3.628  -0.085  0.00  0.00    +0.019 A 
ATOM      9  C   UNL     1       2.850   3.455   0.701  0.00  0.00    +0.005 A 
ATOM     10  C   UNL     1       2.669   2.277   1.434  0.00  0.00    -0.035 A 
ATOM     11  C   UNL     1       3.628   1.260   1.351  0.00  0.00    +0.050 A 
BRANCH   7  12
ATOM     12  C   UNL     1       6.169   2.848  -1.017  0.00  0.00    +0.340 C 
ATOM     13  O   UNL     1       6.288   3.919  -1.673  0.00  0.00    -0.245 OA
BRANCH  12  14
ATOM     14  O   UNL     1       7.176   1.891  -1.107  0.00  0.00    -0.477 OA
ATOM     15  H   UNL     1       7.993   2.046  -1.685  0.00  0.00    +0.295 HD
ENDBRANCH  12  14
ENDBRANCH   7  12
BRANCH   6  16
ATOM     16  O   UNL     1       5.757   0.409   0.481  0.00  0.00    -0.491 OA
BRANCH  16  18
ATOM     17  C   UNL     1       6.948  -1.646   0.861  0.00  0.00    +0.048 C 
ATOM     18  C   UNL     1       5.704  -0.832   1.181  0.00  0.00    +0.226 C 
ENDBRANCH  16  18
ENDBRANCH   6  16
ENDBRANCH   5  10
ENDBRANCH   1   5
BRANCH   3  19
ATOM     19  C   UNL     1      -0.884  -0.743   0.830  0.00  0.00    +0.105 C 
BRANCH  19  20
ATOM     20  C   UNL     1      -2.235  -0.177   1.239  0.00  0.00    -0.006 A 
ATOM     21  C   UNL     1      -2.548  -0.081   2.609  0.00  0.00    +0.007 A 
ATOM     22  C   UNL     1      -3.772   0.444   3.028  0.00  0.00    +0.000 A 
ATOM     23  C   UNL     1      -4.706   0.874   2.088  0.00  0.00    +0.002 A 
ATOM     24  C   UNL     1      -4.420   0.781   0.726  0.00  0.00    +0.023 A 
ATOM     25  C   UNL     1      -3.194   0.259   0.287  0.00  0.00    +0.035 A 
BRANCH  25  26
ATOM     26  N   UNL     1      -2.955   0.166  -1.127  0.00  0.00    -0.330 N 
ATOM     27  C   UNL     1      -3.677  -0.842  -1.912  0.00  0.00    +0.105 C 
ATOM     28  C   UNL     1      -4.661  -0.166  -2.876  0.00  0.00    +0.019 C 
ATOM     29  C   UNL     1      -4.088   1.098  -3.555  0.00  0.00    +0.003 C 
ATOM     30  C   UNL     1      -2.582   1.283  -3.315  0.00  0.00    +0.019 C 
ATOM     31  C   UNL     1      -2.272   1.275  -1.812  0.00  0.00    +0.105 C 
ENDBRANCH  25  26
ENDBRANCH  19  20
BRANCH  19  32
ATOM     32  C   UNL     1      -0.776  -2.260   1.133  0.00  0.00    +0.030 C 
BRANCH  32  33
ATOM     33  C   UNL     1      -1.704  -3.153   0.267  0.00  0.00    -0.015 C 
ATOM     34  C   UNL     1      -3.070  -3.378   0.934  0.00  0.00    +0.007 C 
ATOM     35  C   UNL     1      -1.042  -4.512  -0.005  0.00  0.00    +0.007 C 
ENDBRANCH  32  33
ENDBRANCH  19  32
ENDBRANCH   3  19
TORSDOF 11
