REMARK  Name = 
REMARK  17 active torsions:
REMARK  status: ('A' for Active; 'I' for Inactive)
REMARK    1  A    between atoms: C_3  and  O_4
REMARK    2  A    between atoms: O_4  and  C_5
REMARK    3  A    between atoms: C_5  and  C_7
REMARK    4  A    between atoms: C_8  and  C_9
REMARK    5  A    between atoms: C_11  and  O_12
REMARK    6  A    between atoms: O_12  and  C_13
REMARK    7  A    between atoms: C_14  and  O_15
REMARK    8  A    between atoms: O_15  and  C_16
REMARK    9  A    between atoms: C_17  and  O_18
REMARK   10  A    between atoms: O_18  and  C_19
REMARK   11  A    between atoms: C_21  and  O_22
REMARK   12  A    between atoms: O_22  and  C_23
REMARK   13  A    between atoms: C_24  and  C_25
REMARK   14  A    between atoms: C_25  and  O_27
REMARK   15  A    between atoms: O_27  and  C_28
REMARK   16  A    between atoms: C_42  and  O_43
REMARK   17  A    between atoms: O_43  and  C_44
REMARK                            x       y       z     vdW  Elec       q    Type
REMARK                         _______ _______ _______ _____ _____    ______ ____
ROOT
ATOM      1  C   UNL     1       1.725   1.757   0.062  0.00  0.00    +0.011 C 
ATOM      2  C   UNL     1       0.235   1.665  -0.326  0.00  0.00    +0.052 C 
ATOM      3  C   UNL     1      -0.671   1.914   0.890  0.00  0.00    +0.206 C 
ATOM      4  C   UNL     1      -0.356   0.932   2.041  0.00  0.00    +0.172 C 
ATOM      5  C   UNL     1       1.152   0.983   2.419  0.00  0.00    +0.133 C 
ATOM      6  C   UNL     1       2.085   0.770   1.193  0.00  0.00    +0.012 C 
ATOM      7  C   UNL     1       2.103  -0.687   0.673  0.00  0.00    +0.030 C 
ATOM      8  C   UNL     1       2.998  -0.838  -0.570  0.00  0.00    +0.104 C 
ATOM      9  N   UNL     1       2.619   0.139  -1.626  0.00  0.00    -0.293 NA
ATOM     10  C   UNL     1       3.456  -0.036  -2.842  0.00  0.00    +0.090 C 
ATOM     11  C   UNL     1       4.970   0.190  -2.590  0.00  0.00    +0.053 C 
ATOM     12  C   UNL     1       5.373  -0.363  -1.258  0.00  0.00    -0.016 A 
ATOM     13  C   UNL     1       4.478  -0.755  -0.284  0.00  0.00    +0.038 A 
ATOM     14  N   UNL     1       5.124  -1.147   0.842  0.00  0.00    -0.356 N 
ATOM     15  C   UNL     1       6.435  -0.962   0.583  0.00  0.00    +0.050 A 
ATOM     16  C   UNL     1       6.622  -0.479  -0.691  0.00  0.00    +0.003 A 
ATOM     17  C   UNL     1       7.891  -0.198  -1.190  0.00  0.00    +0.014 A 
ATOM     18  C   UNL     1       8.995  -0.430  -0.345  0.00  0.00    +0.046 A 
ATOM     19  C   UNL     1       8.817  -0.943   0.963  0.00  0.00    +0.122 A 
ATOM     20  C   UNL     1       7.506  -1.213   1.435  0.00  0.00    +0.071 A 
ATOM     21  C   UNL     1       2.646   1.543  -1.154  0.00  0.00    +0.089 C 
ATOM     22  H   UNL     1       4.709  -1.522   1.726  0.00  0.00    +0.166 HD
ENDROOT
BRANCH   4  23
ATOM     23  O   UNL     1      -1.110   1.319   3.182  0.00  0.00    -0.375 OA
ATOM     24  C   UNL     1      -2.228   0.474   3.370  0.00  0.00    +0.194 C 
ENDBRANCH   4  23
BRANCH   5  25
ATOM     25  C   UNL     1       1.524   0.024   3.527  0.00  0.00    +0.313 C 
ATOM     26  O   UNL     1       0.678  -0.804   3.975  0.00  0.00    -0.250 OA
BRANCH  25  27
ATOM     27  O   UNL     1       2.840   0.033   4.011  0.00  0.00    -0.468 OA
ATOM     28  C   UNL     1       3.325  -0.950   4.914  0.00  0.00    +0.280 C 
ENDBRANCH  25  27
ENDBRANCH   5  25
BRANCH  19  29
ATOM     29  O   UNL     1       9.956  -1.166   1.757  0.00  0.00    -0.495 OA
ATOM     30  C   UNL     1       9.929  -1.682   3.082  0.00  0.00    +0.277 C 
ENDBRANCH  19  29
BRANCH   3  31
ATOM     31  O   UNL     1      -2.034   1.743   0.496  0.00  0.00    -0.456 OA
BRANCH  31  32
ATOM     32  C   UNL     1      -2.756   2.677  -0.257  0.00  0.00    +0.332 C 
ATOM     33  O   UNL     1      -2.279   3.820  -0.484  0.00  0.00    -0.246 OA
BRANCH  32  34
ATOM     34  C   UNL     1      -4.075   2.320  -0.805  0.00  0.00    +0.092 C 
ATOM     35  C   UNL     1      -4.574   1.084  -0.677  0.00  0.00    +0.015 C 
BRANCH  35  36
ATOM     36  C   UNL     1      -5.841   0.637  -1.306  0.00  0.00    -0.018 A 
ATOM     37  C   UNL     1      -6.871   1.524  -1.653  0.00  0.00    +0.057 A 
ATOM     38  C   UNL     1      -8.045   1.053  -2.265  0.00  0.00    +0.166 A 
ATOM     39  C   UNL     1      -8.217  -0.323  -2.489  0.00  0.00    +0.204 A 
ATOM     40  C   UNL     1      -7.195  -1.230  -2.135  0.00  0.00    +0.166 A 
ATOM     41  C   UNL     1      -6.021  -0.736  -1.538  0.00  0.00    +0.057 A 
BRANCH  38  42
ATOM     42  O   UNL     1      -9.086   1.916  -2.648  0.00  0.00    -0.491 OA
ATOM     43  C   UNL     1      -9.096   3.324  -2.443  0.00  0.00    +0.277 C 
ENDBRANCH  38  42
BRANCH  39  44
ATOM     44  O   UNL     1      -9.424  -0.731  -3.081  0.00  0.00    -0.488 OA
ATOM     45  C   UNL     1     -10.107  -1.943  -2.771  0.00  0.00    +0.277 C 
ENDBRANCH  39  44
BRANCH  40  46
ATOM     46  O   UNL     1      -7.354  -2.600  -2.409  0.00  0.00    -0.491 OA
ATOM     47  C   UNL     1      -6.373  -3.603  -2.155  0.00  0.00    +0.277 C 
ENDBRANCH  40  46
ENDBRANCH  35  36
ENDBRANCH  32  34
ENDBRANCH  31  32
ENDBRANCH   3  31
TORSDOF 11
