REMARK  Name = 
REMARK  16 active torsions:
REMARK  status: ('A' for Active; 'I' for Inactive)
REMARK    1  A    between atoms: C_3  and  O_4
REMARK    2  A    between atoms: O_4  and  C_5
REMARK    3  A    between atoms: C_5  and  C_7
REMARK    4  A    between atoms: C_9  and  O_10
REMARK    5  A    between atoms: O_10  and  C_11
REMARK    6  A    between atoms: C_12  and  O_13
REMARK    7  A    between atoms: O_13  and  C_14
REMARK    8  A    between atoms: C_15  and  O_16
REMARK    9  A    between atoms: O_16  and  C_17
REMARK   10  A    between atoms: C_19  and  O_20
REMARK   11  A    between atoms: O_20  and  C_21
REMARK   12  A    between atoms: C_22  and  C_23
REMARK   13  A    between atoms: C_23  and  O_25
REMARK   14  A    between atoms: O_25  and  C_26
REMARK   15  A    between atoms: C_40  and  O_41
REMARK   16  A    between atoms: O_41  and  C_42
REMARK                            x       y       z     vdW  Elec       q    Type
REMARK                         _______ _______ _______ _____ _____    ______ ____
ROOT
ATOM      1  C   UNL     1       0.599   1.528  -1.122  0.00  0.00    +0.011 C 
ATOM      2  C   UNL     1      -0.906   1.165  -1.082  0.00  0.00    +0.052 C 
ATOM      3  C   UNL     1      -1.366   0.661   0.292  0.00  0.00    +0.206 C 
ATOM      4  C   UNL     1      -0.543  -0.569   0.719  0.00  0.00    +0.172 C 
ATOM      5  C   UNL     1       0.942  -0.167   0.808  0.00  0.00    +0.133 C 
ATOM      6  C   UNL     1       1.488   0.407  -0.526  0.00  0.00    +0.012 C 
ATOM      7  C   UNL     1       1.787  -0.630  -1.626  0.00  0.00    +0.030 C 
ATOM      8  C   UNL     1       2.749   0.011  -2.654  0.00  0.00    +0.104 C 
ATOM      9  N   UNL     1       2.365   1.429  -2.965  0.00  0.00    -0.293 NA
ATOM     10  C   UNL     1       3.416   2.482  -2.982  0.00  0.00    +0.090 C 
ATOM     11  C   UNL     1       4.358   2.399  -1.775  0.00  0.00    +0.053 C 
ATOM     12  C   UNL     1       4.867   1.005  -1.674  0.00  0.00    -0.016 A 
ATOM     13  C   UNL     1       4.159  -0.090  -2.121  0.00  0.00    +0.038 A 
ATOM     14  N   UNL     1       4.796  -1.241  -1.797  0.00  0.00    -0.356 N 
ATOM     15  C   UNL     1       5.896  -0.862  -1.117  0.00  0.00    +0.050 A 
ATOM     16  C   UNL     1       5.970   0.506  -1.017  0.00  0.00    +0.003 A 
ATOM     17  C   UNL     1       6.978   1.139  -0.296  0.00  0.00    +0.014 A 
ATOM     18  C   UNL     1       7.939   0.329   0.337  0.00  0.00    +0.046 A 
ATOM     19  C   UNL     1       7.863  -1.091   0.250  0.00  0.00    +0.122 A 
ATOM     20  C   UNL     1       6.826  -1.690  -0.491  0.00  0.00    +0.071 A 
ATOM     21  C   UNL     1       1.002   1.870  -2.591  0.00  0.00    +0.089 C 
ATOM     22  H   UNL     1       4.464  -2.217  -1.965  0.00  0.00    +0.166 HD
ENDROOT
BRANCH   4  23
ATOM     23  O   UNL     1      -0.980  -0.985   2.005  0.00  0.00    -0.375 OA
ATOM     24  C   UNL     1      -1.726  -2.181   1.923  0.00  0.00    +0.194 C 
ENDBRANCH   4  23
BRANCH   5  25
ATOM     25  C   UNL     1       1.832  -1.273   1.320  0.00  0.00    +0.313 C 
ATOM     26  O   UNL     1       1.503  -2.483   1.182  0.00  0.00    -0.250 OA
BRANCH  25  27
ATOM     27  O   UNL     1       3.074  -0.940   1.870  0.00  0.00    -0.468 OA
ATOM     28  C   UNL     1       4.051  -1.916   2.203  0.00  0.00    +0.280 C 
ENDBRANCH  25  27
ENDBRANCH   5  25
BRANCH  19  29
ATOM     29  O   UNL     1       8.787  -1.930   0.888  0.00  0.00    -0.495 OA
ATOM     30  C   UNL     1       9.869  -1.468   1.690  0.00  0.00    +0.277 C 
ENDBRANCH  19  29
BRANCH   3  31
ATOM     31  O   UNL     1      -2.744   0.294   0.226  0.00  0.00    -0.455 OA
BRANCH  31  32
ATOM     32  C   UNL     1      -3.801   1.205   0.334  0.00  0.00    +0.340 C 
ATOM     33  O   UNL     1      -3.570   2.425   0.553  0.00  0.00    -0.245 OA
BRANCH  32  34
ATOM     34  C   UNL     1      -5.194   0.724   0.207  0.00  0.00    +0.066 A 
ATOM     35  C   UNL     1      -5.455  -0.523  -0.372  0.00  0.00    +0.064 A 
ATOM     36  C   UNL     1      -6.774  -0.993  -0.501  0.00  0.00    +0.166 A 
ATOM     37  C   UNL     1      -7.847  -0.215  -0.033  0.00  0.00    +0.204 A 
ATOM     38  C   UNL     1      -7.593   1.043   0.573  0.00  0.00    +0.166 A 
ATOM     39  C   UNL     1      -6.263   1.499   0.675  0.00  0.00    +0.064 A 
BRANCH  36  40
ATOM     40  O   UNL     1      -7.063  -2.236  -1.092  0.00  0.00    -0.491 OA
ATOM     41  C   UNL     1      -6.088  -3.133  -1.614  0.00  0.00    +0.277 C 
ENDBRANCH  36  40
BRANCH  37  42
ATOM     42  O   UNL     1      -9.138  -0.752  -0.203  0.00  0.00    -0.488 OA
ATOM     43  C   UNL     1     -10.359  -0.188   0.258  0.00  0.00    +0.277 C 
ENDBRANCH  37  42
BRANCH  38  44
ATOM     44  O   UNL     1      -8.659   1.814   1.065  0.00  0.00    -0.491 OA
ATOM     45  C   UNL     1      -8.521   3.055   1.748  0.00  0.00    +0.277 C 
ENDBRANCH  38  44
ENDBRANCH  32  34
ENDBRANCH  31  32
ENDBRANCH   3  31
TORSDOF 10
