REMARK  Name = 
REMARK  12 active torsions:
REMARK  status: ('A' for Active; 'I' for Inactive)
REMARK    1  A    between atoms: C_1  and  C_2
REMARK    2  A    between atoms: C_11  and  C_12
REMARK    3  A    between atoms: C_13  and  O_23
REMARK    4  A    between atoms: C_15  and  C_16
REMARK    5  A    between atoms: C_15  and  C_17
REMARK    6  A    between atoms: C_19  and  O_20
REMARK    7  A    between atoms: C_21  and  C_22
REMARK    8  A    between atoms: O_23  and  C_24
REMARK    9  A    between atoms: C_24  and  C_26
REMARK   10  A    between atoms: C_26  and  S_27
REMARK   11  A    between atoms: S_27  and  C_28
REMARK   12  A    between atoms: N_35  and  C_36
REMARK                            x       y       z     vdW  Elec       q    Type
REMARK                         _______ _______ _______ _____ _____    ______ ____
ROOT
ATOM      1  C   UNL     1      -3.095  -3.522   0.127  0.00  0.00    +0.008 C 
ATOM      2  C   UNL     1      -3.108  -2.653   1.400  0.00  0.00    -0.004 C 
ATOM      3  C   UNL     1      -4.554  -2.393   1.849  0.00  0.00    +0.004 C 
ATOM      4  C   UNL     1      -5.276  -1.443   0.889  0.00  0.00    +0.008 C 
ATOM      5  C   UNL     1      -4.492  -0.108   0.553  0.00  0.00    -0.014 C 
ATOM      6  C   UNL     1      -5.327   1.076   1.121  0.00  0.00    +0.015 C 
ATOM      7  C   UNL     1      -5.015   1.149   2.604  0.00  0.00    +0.075 C 
ATOM      8  C   UNL     1      -3.648   0.594   2.684  0.00  0.00    +0.138 C 
ATOM      9  O   UNL     1      -2.962   0.775   3.678  0.00  0.00    -0.297 OA
ATOM     10  C   UNL     1      -3.151  -0.001   1.377  0.00  0.00    +0.071 C 
ATOM     11  C   UNL     1      -2.248  -1.308   1.427  0.00  0.00    +0.018 C 
ATOM     12  C   UNL     1      -1.477  -1.362   2.788  0.00  0.00    +0.016 C 
ATOM     13  C   UNL     1      -1.100  -1.214   0.329  0.00  0.00    +0.184 C 
ATOM     14  C   UNL     1      -1.452  -0.993  -1.183  0.00  0.00    +0.058 C 
ATOM     15  C   UNL     1      -1.816   0.412  -1.831  0.00  0.00    +0.015 C 
ATOM     16  C   UNL     1      -0.732   1.464  -1.488  0.00  0.00    +0.018 C 
ATOM     17  C   UNL     1      -3.233   1.052  -1.481  0.00  0.00    +0.128 C 
ATOM     18  C   UNL     1      -4.334   0.032  -1.018  0.00  0.00    +0.022 C 
ATOM     19  C   UNL     1      -5.700   0.325  -1.696  0.00  0.00    +0.011 C 
ENDROOT
BRANCH  15  20
ATOM     20  C   UNL     1      -1.726   0.190  -3.352  0.00  0.00    -0.025 C 
ATOM     21  C   UNL     1      -2.546  -0.620  -4.035  0.00  0.00    +0.004 C 
ENDBRANCH  15  20
BRANCH  17  22
ATOM     22  O   UNL     1      -3.699   1.808  -2.582  0.00  0.00    -0.391 OA
ATOM     23  H   UNL     1      -3.193   2.662  -2.600  0.00  0.00    +0.210 HD
ENDBRANCH  17  22
BRANCH  13  24
ATOM     24  O   UNL     1      -0.105  -0.267   0.734  0.00  0.00    -0.460 OA
BRANCH  24  25
ATOM     25  C   UNL     1       1.249  -0.344   0.381  0.00  0.00    +0.317 C 
ATOM     26  O   UNL     1       1.682  -1.292  -0.329  0.00  0.00    -0.250 OA
BRANCH  25  27
ATOM     27  C   UNL     1       2.167   0.758   0.789  0.00  0.00    +0.189 C 
BRANCH  27  28
ATOM     28  S   UNL     1       3.636   0.083   1.645  0.00  0.00    -0.146 S 
BRANCH  28  29
ATOM     29  C   UNL     1       4.838   0.255   0.244  0.00  0.00    +0.050 C 
ATOM     30  C   UNL     1       5.175   1.773   0.021  0.00  0.00    +0.033 C 
ATOM     31  C   UNL     1       6.681   2.101  -0.003  0.00  0.00    +0.058 C 
ATOM     32  C   UNL     1       7.299   1.697  -1.344  0.00  0.00    +0.020 C 
ATOM     33  C   UNL     1       7.768   0.270  -1.116  0.00  0.00    +0.020 C 
ATOM     34  C   UNL     1       7.434  -0.008   0.357  0.00  0.00    +0.058 C 
ATOM     35  C   UNL     1       6.061  -0.697   0.491  0.00  0.00    +0.033 C 
ATOM     36  N   UNL     1       7.329   1.285   1.029  0.00  0.00    -0.299 NA
ATOM     37  C   UNL     1       8.644   1.819   1.429  0.00  0.00    +0.105 C 
ENDBRANCH  28  29
ENDBRANCH  27  28
ENDBRANCH  25  27
ENDBRANCH  24  25
ENDBRANCH  13  24
TORSDOF 7
