REMARK  Name = 
REMARK  6 active torsions:
REMARK  status: ('A' for Active; 'I' for Inactive)
REMARK    1  A    between atoms: C_2  and  C_4
REMARK    2  A    between atoms: N_6  and  C1*_9
REMARK    3  A    between atoms: C4*_11  and  C5*_12
REMARK    4  A    between atoms: C5*_12  and  O5*_13
REMARK    5  A    between atoms: C3*_14  and  O3*_15
REMARK    6  A    between atoms: C2*_16  and  O2*_17
REMARK                            x       y       z     vdW  Elec       q    Type
REMARK                         _______ _______ _______ _____ _____    ______ ____
ROOT
ATOM      1  C1* UNL     1       0.323   0.815  -0.011  0.00  0.00    +0.270 C 
ATOM      2  O4* UNL     1       1.132   0.575  -1.138  0.00  0.00    -0.344 OA
ATOM      3  C4* UNL     1       2.469   0.540  -0.683  0.00  0.00    +0.177 C 
ATOM      4  C3* UNL     1       2.489   0.441   0.854  0.00  0.00    +0.178 C 
ATOM      5  C2* UNL     1       1.033   0.238   1.201  0.00  0.00    +0.196 C 
ENDROOT
BRANCH   1   8
ATOM      6  C   UNL     1      -3.080  -0.161  -0.073  0.00  0.00    +0.236 A 
ATOM      7  N   UNL     1      -2.124   0.743   0.220  0.00  0.00    -0.142 NA
ATOM      8  N   UNL     1      -0.992   0.201  -0.188  0.00  0.00    -0.220 N 
ATOM      9  C   UNL     1      -1.264  -1.013  -0.700  0.00  0.00    +0.223 A 
ATOM     10  N   UNL     1      -2.583  -1.279  -0.649  0.00  0.00    -0.211 NA
BRANCH   6  12
ATOM     11  N   UNL     1      -5.471  -0.953  -0.115  0.00  0.00    -0.323 N 
ATOM     12  C   UNL     1      -4.506   0.046   0.215  0.00  0.00    +0.281 C 
ATOM     13  O   UNL     1      -4.882   1.118   0.760  0.00  0.00    -0.267 OA
ATOM     14  H   UNL     1      -6.482  -0.795   0.094  0.00  0.00    +0.145 HD
ATOM     15  H   UNL     1      -5.186  -1.850  -0.567  0.00  0.00    +0.145 HD
ENDBRANCH   6  12
ENDBRANCH   1   8
BRANCH   4  16
ATOM     16  O3* UNL     1       2.970   1.639   1.412  0.00  0.00    -0.386 OA
ATOM     17  H3* UNL     1       3.957   1.620   1.308  0.00  0.00    +0.210 HD
ENDBRANCH   4  16
BRANCH   5  18
ATOM     18  O2* UNL     1       0.675   0.910   2.381  0.00  0.00    -0.385 OA
ATOM     19  H2* UNL     1      -0.234   0.590   2.621  0.00  0.00    +0.210 HD
ENDBRANCH   5  18
BRANCH   3  20
ATOM     20  C5* UNL     1       3.211  -0.628  -1.349  0.00  0.00    +0.190 C 
BRANCH  20  21
ATOM     21  O5* UNL     1       2.620  -1.856  -1.016  0.00  0.00    -0.392 OA
ATOM     22  H5* UNL     1       1.865  -1.989  -1.646  0.00  0.00    +0.210 HD
ENDBRANCH  20  21
ENDBRANCH   3  20
TORSDOF 6
