REMARK  Name = 
REMARK  11 active torsions:
REMARK  status: ('A' for Active; 'I' for Inactive)
REMARK    1  A    between atoms: C_1  and  C_2
REMARK    2  A    between atoms: C_3  and  C_4
REMARK    3  A    between atoms: N_7  and  C_8
REMARK    4  A    between atoms: C_8  and  C_9
REMARK    5  A    between atoms: C_9  and  O_10
REMARK    6  A    between atoms: C_9  and  C_11
REMARK    7  A    between atoms: C_11  and  O_12
REMARK    8  A    between atoms: C_11  and  C_13
REMARK    9  A    between atoms: C_13  and  O_14
REMARK   10  A    between atoms: C_13  and  C_15
REMARK   11  A    between atoms: C_15  and  O_16
REMARK                            x       y       z     vdW  Elec       q    Type
REMARK                         _______ _______ _______ _____ _____    ______ ____
ROOT
ATOM      1  C   UNL     1       1.697  -4.500   2.878  0.00  0.00    +0.044 C 
ATOM      2  C   UNL     1       1.028  -3.273   2.312  0.00  0.00    -0.045 A 
ATOM      3  C   UNL     1       0.229  -3.342   1.152  0.00  0.00    -0.045 A 
ATOM      4  C   UNL     1       0.000  -4.654   0.444  0.00  0.00    +0.044 C 
ATOM      5  C   UNL     1      -0.380  -2.177   0.655  0.00  0.00    +0.031 A 
ATOM      6  C   UNL     1      -0.197  -0.918   1.280  0.00  0.00    +0.069 A 
ATOM      7  N   UNL     1      -0.784   0.247   0.800  0.00  0.00    -0.320 N 
ATOM      8  C   UNL     1      -0.569   1.427   1.475  0.00  0.00    +0.170 A 
ATOM      9  N   UNL     1      -1.135   2.598   1.080  0.00  0.00    -0.173 NA
ATOM     10  C   UNL     1      -0.910   3.760   1.749  0.00  0.00    +0.351 A 
ATOM     11  O   UNL     1      -1.452   4.822   1.344  0.00  0.00    -0.245 OA
ATOM     12  N   UNL     1      -0.103   3.784   2.848  0.00  0.00    -0.272 N 
ATOM     13  C   UNL     1       0.498   2.656   3.317  0.00  0.00    +0.282 A 
ATOM     14  O   UNL     1       1.234   2.713   4.340  0.00  0.00    -0.265 OA
ATOM     15  C   UNL     1       0.292   1.443   2.663  0.00  0.00    +0.171 A 
ATOM     16  N   UNL     1       0.850   0.292   3.091  0.00  0.00    -0.237 NA
ATOM     17  C   UNL     1       0.628  -0.876   2.441  0.00  0.00    +0.089 A 
ATOM     18  C   UNL     1       1.225  -2.037   2.937  0.00  0.00    +0.033 A 
ATOM     19  H   UNL     1       0.056   4.691   3.344  0.00  0.00    +0.174 HD
ENDROOT
BRANCH   7  20
ATOM     20  C   UNL     1      -1.649   0.263  -0.408  0.00  0.00    +0.158 C 
BRANCH  20  21
ATOM     21  C   UNL     1      -0.851   0.407  -1.731  0.00  0.00    +0.165 C 
BRANCH  21  22
ATOM     22  O   UNL     1       0.124  -0.599  -1.849  0.00  0.00    -0.387 OA
ATOM     23  H   UNL     1       0.875  -0.365  -1.243  0.00  0.00    +0.210 HD
ENDBRANCH  21  22
BRANCH  21  24
ATOM     24  C   UNL     1      -0.232   1.825  -1.925  0.00  0.00    +0.175 C 
BRANCH  24  25
ATOM     25  O   UNL     1      -1.219   2.829  -1.889  0.00  0.00    -0.387 OA
ATOM     26  H   UNL     1      -1.952   2.563  -2.501  0.00  0.00    +0.210 HD
ENDBRANCH  24  25
BRANCH  24  27
ATOM     27  C   UNL     1       0.656   1.965  -3.196  0.00  0.00    +0.171 C 
BRANCH  27  28
ATOM     28  O   UNL     1       1.317   3.206  -3.180  0.00  0.00    -0.387 OA
ATOM     29  H   UNL     1       0.631   3.914  -3.301  0.00  0.00    +0.210 HD
ENDBRANCH  27  28
BRANCH  27  30
ATOM     30  C   UNL     1      -0.087   1.783  -4.536  0.00  0.00    +0.189 C 
BRANCH  30  31
ATOM     31  O   UNL     1      -0.409   0.435  -4.742  0.00  0.00    -0.392 OA
ATOM     32  H   UNL     1      -0.899   0.397  -5.604  0.00  0.00    +0.210 HD
ENDBRANCH  30  31
ENDBRANCH  27  30
ENDBRANCH  24  27
ENDBRANCH  21  24
ENDBRANCH  20  21
ENDBRANCH   7  20
TORSDOF 9
