REMARK  Name = 
REMARK  10 active torsions:
REMARK  status: ('A' for Active; 'I' for Inactive)
REMARK    1  A    between atoms: O_1  and  C_2
REMARK    2  A    between atoms: C_2  and  C_4
REMARK    3  A    between atoms: C_4  and  C_5
REMARK    4  A    between atoms: C_5  and  C_6
REMARK    5  A    between atoms: C_6  and  C_7
REMARK    6  A    between atoms: C_7  and  O_8
REMARK    7  A    between atoms: O_8  and  N_9
REMARK    8  A    between atoms: C_10  and  C_11
REMARK    9  A    between atoms: C_10  and  C_17
REMARK   10  A    between atoms: C_19  and  C_23
REMARK                            x       y       z     vdW  Elec       q    Type
REMARK                         _______ _______ _______ _____ _____    ______ ____
ROOT
ATOM      1  N   UNL     1       0.114   1.945   0.262  0.00  0.00    -0.084 NA
ATOM      2  C   UNL     1      -1.012   1.511  -0.222  0.00  0.00    +0.118 C 
ENDROOT
BRANCH   2   3
ATOM      3  C   UNL     1      -2.200   2.409  -0.224  0.00  0.00    +0.022 A 
ATOM      4  C   UNL     1      -2.055   3.794  -0.015  0.00  0.00    +0.120 A 
ATOM      5  N   UNL     1      -3.144   4.608  -0.012  0.00  0.00    -0.263 NA
ATOM      6  C   UNL     1      -4.399   4.126  -0.204  0.00  0.00    +0.111 A 
ATOM      7  C   UNL     1      -4.598   2.761  -0.410  0.00  0.00    +0.020 A 
ATOM      8  C   UNL     1      -3.498   1.902  -0.418  0.00  0.00    +0.013 A 
ENDBRANCH   2   3
BRANCH   2   9
ATOM      9  C   UNL     1      -1.097   0.147  -0.792  0.00  0.00    +0.005 A 
ATOM     10  C   UNL     1      -0.861  -0.974   0.019  0.00  0.00    +0.022 A 
ATOM     11  C   UNL     1      -0.932  -2.273  -0.518  0.00  0.00    +0.055 A 
ATOM     12  C   UNL     1      -1.221  -2.432  -1.883  0.00  0.00    +0.012 A 
ATOM     13  C   UNL     1      -1.467  -1.317  -2.689  0.00  0.00    +0.001 A 
ATOM     14  C   UNL     1      -1.410  -0.032  -2.146  0.00  0.00    +0.010 A 
BRANCH  11  15
ATOM     15  C   UNL     1      -0.636  -3.486   0.329  0.00  0.00    +0.417 C 
ATOM     16  F   UNL     1       0.632  -3.950   0.032  0.00  0.00    -0.166 F 
ATOM     17  F   UNL     1      -1.555  -4.485   0.061  0.00  0.00    -0.166 F 
ATOM     18  F   UNL     1      -0.699  -3.188   1.679  0.00  0.00    -0.166 F 
ENDBRANCH  11  15
ENDBRANCH   2   9
BRANCH   1  19
ATOM     19  O   UNL     1       1.260   1.181   0.255  0.00  0.00    -0.393 OA
BRANCH  19  20
ATOM     20  C   UNL     1       2.482   1.714   0.745  0.00  0.00    +0.263 C 
BRANCH  20  21
ATOM     21  C   UNL     1       3.624   0.716   0.521  0.00  0.00    +0.044 C 
BRANCH  21  22
ATOM     22  C   UNL     1       3.689  -0.394   1.583  0.00  0.00    +0.014 C 
BRANCH  22  23
ATOM     23  C   UNL     1       2.469  -1.321   1.551  0.00  0.00    +0.120 C 
BRANCH  23  24
ATOM     24  C   UNL     1       2.694  -2.518   2.419  0.00  0.00    +0.305 C 
ATOM     25  O   UNL     1       2.373  -2.485   3.637  0.00  0.00    -0.251 OA
BRANCH  24  26
ATOM     26  O   UNL     1       3.294  -3.656   1.888  0.00  0.00    -0.481 OA
ATOM     27  H   UNL     1       3.461  -4.472   2.463  0.00  0.00    +0.295 HD
ENDBRANCH  24  26
ENDBRANCH  23  24
ENDBRANCH  22  23
ENDBRANCH  21  22
ENDBRANCH  20  21
ENDBRANCH  19  20
ENDBRANCH   1  19
TORSDOF 10
