REMARK  Name = 
REMARK  20 active torsions:
REMARK  status: ('A' for Active; 'I' for Inactive)
REMARK    1  A    between atoms: C_1  and  O_2
REMARK    2  A    between atoms: O_2  and  C_3
REMARK    3  A    between atoms: C_7  and  C_8
REMARK    4  A    between atoms: C_15  and  O_16
REMARK    5  A    between atoms: C_17  and  C_18
REMARK    6  A    between atoms: N_19  and  N_20
REMARK    7  A    between atoms: N_23  and  C_24
REMARK    8  A    between atoms: C_31  and  C_32
REMARK    9  A    between atoms: C_36  and  C_37
REMARK   10  A    between atoms: C_38  and  O_39
REMARK   11  A    between atoms: C_40  and  C_41
REMARK   12  A    between atoms: C_42  and  O_43
REMARK   13  A    between atoms: C_44  and  C_45
REMARK   14  A    between atoms: C_46  and  O_47
REMARK   15  A    between atoms: O_47  and  C_48
REMARK   16  A    between atoms: C_48  and  C_49
REMARK   17  A    between atoms: C_51  and  C_52
REMARK   18  A    between atoms: C_53  and  O_54
REMARK   19  A    between atoms: C_56  and  O_57
REMARK   20  A    between atoms: C_58  and  C_59
REMARK                            x       y       z     vdW  Elec       q    Type
REMARK                         _______ _______ _______ _____ _____    ______ ____
ROOT
ATOM      1  C   UNL     1      -2.816  -1.366   1.831  0.00  0.00    +0.150 C 
ATOM      2  C   UNL     1      -2.349  -2.416   0.850  0.00  0.00    +0.042 C 
ATOM      3  C   UNL     1      -2.876  -3.645   0.809  0.00  0.00    +0.190 C 
ATOM      4  O   UNL     1      -2.471  -4.620  -0.120  0.00  0.00    -0.453 OA
ATOM      5  C   UNL     1      -1.126  -5.063  -0.386  0.00  0.00    +0.314 C 
ATOM      6  C   UNL     1      -0.980  -6.526   0.018  0.00  0.00    +0.114 C 
ATOM      7  O   UNL     1      -0.861  -4.922  -1.778  0.00  0.00    -0.444 OA
ATOM      8  C   UNL     1       0.122  -3.970  -2.004  0.00  0.00    +0.144 A 
ATOM      9  C   UNL     1       0.646  -3.468  -0.834  0.00  0.00    +0.079 A 
ATOM     10  C   UNL     1      -0.050  -4.215   0.227  0.00  0.00    +0.250 C 
ATOM     11  O   UNL     1       0.190  -4.181   1.461  0.00  0.00    -0.284 OA
ATOM     12  C   UNL     1       1.522  -2.350  -0.849  0.00  0.00    +0.046 A 
ATOM     13  C   UNL     1       2.076  -1.778   0.325  0.00  0.00    +0.136 A 
ATOM     14  C   UNL     1       2.865  -0.612   0.240  0.00  0.00    +0.061 A 
ATOM     15  C   UNL     1       2.852   0.128  -0.948  0.00  0.00    +0.089 A 
ATOM     16  N   UNL     1       3.129   1.536  -0.911  0.00  0.00    -0.278 N 
ATOM     17  C   UNL     1       2.086   2.454  -0.546  0.00  0.00    +0.244 C 
ATOM     18  O   UNL     1       0.892   2.120  -0.763  0.00  0.00    -0.270 OA
ATOM     19  C   UNL     1       2.401   3.750   0.123  0.00  0.00    +0.012 C 
ATOM     20  C   UNL     1       3.833   4.028   0.505  0.00  0.00    +0.049 C 
ATOM     21  C   UNL     1       1.430   4.663   0.492  0.00  0.00    +0.008 C 
ATOM     22  C   UNL     1      -0.103   4.377   0.473  0.00  0.00    -0.003 C 
ATOM     23  C   UNL     1      -1.108   4.594  -0.411  0.00  0.00    -0.021 C 
ATOM     24  C   UNL     1      -2.616   4.481  -0.302  0.00  0.00    +0.037 C 
ATOM     25  C   UNL     1      -3.109   5.187   0.974  0.00  0.00    +0.014 C 
ATOM     26  C   UNL     1      -3.149   3.016  -0.396  0.00  0.00    +0.126 C 
ATOM     27  C   UNL     1      -4.652   2.973  -0.865  0.00  0.00    +0.044 C 
ATOM     28  C   UNL     1      -4.805   2.816  -2.383  0.00  0.00    +0.013 C 
ATOM     29  C   UNL     1      -5.605   2.075  -0.000  0.00  0.00    +0.126 C 
ATOM     30  C   UNL     1      -5.685   0.525  -0.249  0.00  0.00    +0.056 C 
ATOM     31  C   UNL     1      -6.344   0.157  -1.601  0.00  0.00    +0.014 C 
ATOM     32  C   UNL     1      -4.364  -0.276   0.047  0.00  0.00    +0.187 C 
ATOM     33  C   UNL     1      -4.250  -0.839   1.516  0.00  0.00    +0.060 C 
ATOM     34  C   UNL     1      -4.626   0.192   2.600  0.00  0.00    +0.014 C 
ATOM     35  C   UNL     1       2.362  -0.438  -2.134  0.00  0.00    +0.150 A 
ATOM     36  C   UNL     1       1.802  -1.747  -2.119  0.00  0.00    +0.071 A 
ATOM     37  C   UNL     1       1.437  -2.438  -3.316  0.00  0.00    +0.135 A 
ATOM     38  C   UNL     1       0.545  -3.538  -3.257  0.00  0.00    +0.034 A 
ATOM     39  C   UNL     1       0.017  -4.194  -4.500  0.00  0.00    +0.051 C 
ATOM     40  H   UNL     1       4.011   1.883  -1.338  0.00  0.00    +0.155 HD
ENDROOT
BRANCH   1  42
ATOM     41  C   UNL     1      -1.514  -1.743   3.724  0.00  0.00    +0.194 C 
ATOM     42  O   UNL     1      -2.785  -1.920   3.141  0.00  0.00    -0.375 OA
ENDBRANCH   1  42
BRANCH  13  43
ATOM     43  O   UNL     1       1.832  -2.351   1.574  0.00  0.00    -0.505 OA
ATOM     44  H   UNL     1       1.825  -1.815   2.429  0.00  0.00    +0.292 HD
ENDBRANCH  13  43
BRANCH  14  45
ATOM     45  C   UNL     1       3.753  -0.208   1.359  0.00  0.00    +0.143 C 
ATOM     46  N   UNL     1       4.804   0.517   1.131  0.00  0.00    -0.192 NA
BRANCH  46  47
ATOM     47  N   UNL     1       5.832   0.709   2.074  0.00  0.00    -0.253 N 
ATOM     48  C   UNL     1       6.594   1.960   2.017  0.00  0.00    +0.141 C 
ATOM     49  C   UNL     1       8.105   1.686   2.063  0.00  0.00    +0.104 C 
ATOM     50  N   UNL     1       8.389   0.447   1.310  0.00  0.00    -0.302 NA
ATOM     51  C   UNL     1       9.835   0.293   1.093  0.00  0.00    +0.105 C 
ATOM     52  C   UNL     1       7.833  -0.743   1.995  0.00  0.00    +0.104 C 
ATOM     53  C   UNL     1       6.482  -0.453   2.695  0.00  0.00    +0.141 C 
ENDBRANCH  46  47
ENDBRANCH  14  45
BRANCH  26  54
ATOM     54  O   UNL     1      -2.331   2.282  -1.281  0.00  0.00    -0.391 OA
ATOM     55  H   UNL     1      -1.734   1.702  -0.733  0.00  0.00    +0.210 HD
ENDBRANCH  26  54
BRANCH  29  56
ATOM     56  O   UNL     1      -6.904   2.611  -0.090  0.00  0.00    -0.391 OA
ATOM     57  H   UNL     1      -7.370   2.391   0.759  0.00  0.00    +0.210 HD
ENDBRANCH  29  56
BRANCH  35  58
ATOM     58  O   UNL     1       2.390   0.387  -3.266  0.00  0.00    -0.504 OA
ATOM     59  H   UNL     1       2.084   0.136  -4.194  0.00  0.00    +0.292 HD
ENDBRANCH  35  58
BRANCH  37  60
ATOM     60  O   UNL     1       1.995  -2.069  -4.546  0.00  0.00    -0.506 OA
ATOM     61  H   UNL     1       1.815  -2.565  -5.408  0.00  0.00    +0.292 HD
ENDBRANCH  37  60
BRANCH  32  62
ATOM     62  O   UNL     1      -4.282  -1.388  -0.855  0.00  0.00    -0.461 OA
BRANCH  62  63
ATOM     63  C   UNL     1      -3.469  -1.446  -1.995  0.00  0.00    +0.304 C 
ATOM     64  C   UNL     1      -3.584  -2.616  -2.908  0.00  0.00    +0.136 C 
ATOM     65  O   UNL     1      -2.660  -0.511  -2.272  0.00  0.00    -0.251 OA
ENDBRANCH  62  63
ENDBRANCH  32  62
TORSDOF 10
