REMARK  Name = 
REMARK  17 active torsions:
REMARK  status: ('A' for Active; 'I' for Inactive)
REMARK    1  A    between atoms: C_1  and  O_2
REMARK    2  A    between atoms: O_2  and  C_3
REMARK    3  A    between atoms: C_7  and  C_8
REMARK    4  A    between atoms: C_11  and  C_12
REMARK    5  A    between atoms: C_13  and  O_14
REMARK    6  A    between atoms: C_16  and  O_17
REMARK    7  A    between atoms: C_22  and  C_23
REMARK    8  A    between atoms: C_27  and  C_28
REMARK    9  A    between atoms: C_29  and  O_30
REMARK   10  A    between atoms: C_31  and  C_32
REMARK   11  A    between atoms: C_33  and  O_34
REMARK   12  A    between atoms: C_35  and  C_36
REMARK   13  A    between atoms: C_37  and  O_38
REMARK   14  A    between atoms: O_38  and  C_39
REMARK   15  A    between atoms: C_39  and  C_40
REMARK   16  A    between atoms: C_42  and  C_43
REMARK   17  A    between atoms: C_49  and  C_50
REMARK                            x       y       z     vdW  Elec       q    Type
REMARK                         _______ _______ _______ _____ _____    ______ ____
ROOT
ATOM      1  C   UNL     1      -2.659  -3.370   0.980  0.00  0.00    +0.150 C 
ATOM      2  C   UNL     1      -1.244  -3.824   1.270  0.00  0.00    +0.042 C 
ATOM      3  C   UNL     1      -0.500  -4.497   0.394  0.00  0.00    +0.190 C 
ATOM      4  O   UNL     1       0.795  -4.882   0.745  0.00  0.00    -0.453 OA
ATOM      5  C   UNL     1       1.894  -4.867  -0.169  0.00  0.00    +0.314 C 
ATOM      6  C   UNL     1       2.589  -6.224  -0.216  0.00  0.00    +0.114 C 
ATOM      7  O   UNL     1       1.484  -4.465  -1.478  0.00  0.00    -0.444 OA
ATOM      8  C   UNL     1       1.891  -3.161  -1.735  0.00  0.00    +0.143 A 
ATOM      9  C   UNL     1       1.522  -2.397  -2.840  0.00  0.00    +0.034 A 
ATOM     10  C   UNL     1       0.653  -3.006  -3.909  0.00  0.00    +0.051 C 
ATOM     11  C   UNL     1       1.907  -1.032  -2.870  0.00  0.00    +0.135 A 
ATOM     12  C   UNL     1       2.678  -0.473  -1.801  0.00  0.00    +0.070 A 
ATOM     13  C   UNL     1       2.974   0.929  -1.758  0.00  0.00    +0.151 A 
ATOM     14  C   UNL     1       3.527   1.511  -0.587  0.00  0.00    +0.103 A 
ATOM     15  N   UNL     1       3.260   2.880  -0.259  0.00  0.00    -0.277 N 
ATOM     16  C   UNL     1       3.767   4.018  -0.970  0.00  0.00    +0.244 C 
ATOM     17  O   UNL     1       4.872   3.945  -1.573  0.00  0.00    -0.270 OA
ATOM     18  C   UNL     1       3.023   5.303  -0.938  0.00  0.00    +0.012 C 
ATOM     19  C   UNL     1       3.833   6.563  -0.782  0.00  0.00    +0.049 C 
ATOM     20  C   UNL     1       1.673   5.378  -1.011  0.00  0.00    +0.008 C 
ATOM     21  C   UNL     1       0.803   4.223  -1.325  0.00  0.00    -0.003 C 
ATOM     22  C   UNL     1      -0.527   4.334  -1.384  0.00  0.00    -0.021 C 
ATOM     23  C   UNL     1      -1.381   3.185  -1.889  0.00  0.00    +0.037 C 
ATOM     24  C   UNL     1      -1.783   3.474  -3.344  0.00  0.00    +0.014 C 
ATOM     25  C   UNL     1      -2.635   2.912  -0.999  0.00  0.00    +0.126 C 
ATOM     26  C   UNL     1      -2.411   1.756   0.032  0.00  0.00    +0.044 C 
ATOM     27  C   UNL     1      -1.450   2.199   1.147  0.00  0.00    +0.013 C 
ATOM     28  C   UNL     1      -3.739   1.191   0.645  0.00  0.00    +0.126 C 
ATOM     29  C   UNL     1      -4.471   0.041  -0.151  0.00  0.00    +0.056 C 
ATOM     30  C   UNL     1      -4.483   0.171  -1.686  0.00  0.00    +0.014 C 
ATOM     31  C   UNL     1      -4.199  -1.417   0.374  0.00  0.00    +0.187 C 
ATOM     32  C   UNL     1      -2.728  -1.955   0.311  0.00  0.00    +0.060 C 
ATOM     33  C   UNL     1      -2.189  -2.019  -1.133  0.00  0.00    +0.014 C 
ATOM     34  C   UNL     1       3.958   0.645   0.422  0.00  0.00    +0.099 A 
ATOM     35  C   UNL     1       3.731  -0.710   0.377  0.00  0.00    +0.101 A 
ATOM     36  N   UNL     1       4.106  -1.283   1.542  0.00  0.00    -0.227 NA
ATOM     37  C   UNL     1       4.584  -0.243   2.258  0.00  0.00    +0.139 A 
ATOM     38  C   UNL     1       5.081  -0.324   3.555  0.00  0.00    +0.050 A 
ATOM     39  C   UNL     1       5.518   0.862   4.170  0.00  0.00    -0.046 A 
ATOM     40  C   UNL     1       6.017   0.841   5.581  0.00  0.00    +0.044 C 
ATOM     41  C   UNL     1       5.433   2.086   3.472  0.00  0.00    +0.021 A 
ATOM     42  C   UNL     1       4.933   2.110   2.163  0.00  0.00    +0.093 A 
ATOM     43  N   UNL     1       4.506   0.940   1.617  0.00  0.00    -0.298 N 
ATOM     44  C   UNL     1       3.067  -1.310  -0.702  0.00  0.00    +0.031 A 
ATOM     45  C   UNL     1       2.684  -2.664  -0.731  0.00  0.00    +0.077 A 
ATOM     46  C   UNL     1       2.818  -3.761   0.231  0.00  0.00    +0.250 C 
ATOM     47  O   UNL     1       3.557  -3.789   1.248  0.00  0.00    -0.284 OA
ATOM     48  H   UNL     1       2.670   3.062   0.589  0.00  0.00    +0.155 HD
ENDROOT
BRANCH   1  50
ATOM     49  C   UNL     1      -3.993  -5.279   0.949  0.00  0.00    +0.194 C 
ATOM     50  O   UNL     1      -3.338  -4.313   0.165  0.00  0.00    -0.375 OA
ENDBRANCH   1  50
BRANCH  11  51
ATOM     51  O   UNL     1       1.485  -0.212  -3.921  0.00  0.00    -0.506 OA
ATOM     52  H   UNL     1       0.838  -0.512  -4.642  0.00  0.00    +0.292 HD
ENDBRANCH  11  51
BRANCH  13  53
ATOM     53  O   UNL     1       2.690   1.721  -2.873  0.00  0.00    -0.504 OA
ATOM     54  H   UNL     1       2.990   2.679  -2.973  0.00  0.00    +0.292 HD
ENDBRANCH  13  53
BRANCH  25  55
ATOM     55  O   UNL     1      -3.060   4.084  -0.342  0.00  0.00    -0.391 OA
ATOM     56  H   UNL     1      -3.473   4.670  -1.033  0.00  0.00    +0.210 HD
ENDBRANCH  25  55
BRANCH  28  57
ATOM     57  O   UNL     1      -4.628   2.240   0.952  0.00  0.00    -0.391 OA
ATOM     58  H   UNL     1      -5.113   2.478   0.117  0.00  0.00    +0.210 HD
ENDBRANCH  28  57
BRANCH  31  59
ATOM     59  O   UNL     1      -4.634  -1.478   1.740  0.00  0.00    -0.461 OA
BRANCH  59  60
ATOM     60  C   UNL     1      -5.968  -1.592   2.142  0.00  0.00    +0.304 C 
ATOM     61  C   UNL     1      -6.288  -1.585   3.598  0.00  0.00    +0.136 C 
ATOM     62  O   UNL     1      -6.891  -1.742   1.297  0.00  0.00    -0.251 OA
ENDBRANCH  59  60
ENDBRANCH  31  59
TORSDOF 7
