REMARK  Name = 
REMARK  20 active torsions:
REMARK  status: ('A' for Active; 'I' for Inactive)
REMARK    1  A    between atoms: C_1  and  O_2
REMARK    2  A    between atoms: O_2  and  C_3
REMARK    3  A    between atoms: C_7  and  C_8
REMARK    4  A    between atoms: C_16  and  O_17
REMARK    5  A    between atoms: C_18  and  C_19
REMARK    6  A    between atoms: C_20  and  O_21
REMARK    7  A    between atoms: C_26  and  C_27
REMARK    8  A    between atoms: C_31  and  C_32
REMARK    9  A    between atoms: C_33  and  O_34
REMARK   10  A    between atoms: C_35  and  C_36
REMARK   11  A    between atoms: C_37  and  O_38
REMARK   12  A    between atoms: C_39  and  C_40
REMARK   13  A    between atoms: C_41  and  O_42
REMARK   14  A    between atoms: O_42  and  C_43
REMARK   15  A    between atoms: C_43  and  C_44
REMARK   16  A    between atoms: C_46  and  C_47
REMARK   17  A    between atoms: C_48  and  C_49
REMARK   18  A    between atoms: N_50  and  N_51
REMARK   19  A    between atoms: N_54  and  C_57
REMARK   20  A    between atoms: C_62  and  O_63
REMARK                            x       y       z     vdW  Elec       q    Type
REMARK                         _______ _______ _______ _____ _____    ______ ____
ROOT
ATOM      1  C   UNL     1      -4.376  -3.871   1.340  0.00  0.00    +0.150 C 
ATOM      2  C   UNL     1      -3.696  -4.903   0.460  0.00  0.00    +0.042 C 
ATOM      3  C   UNL     1      -2.655  -4.582  -0.306  0.00  0.00    +0.190 C 
ATOM      4  O   UNL     1      -2.099  -5.523  -1.181  0.00  0.00    -0.453 OA
ATOM      5  C   UNL     1      -1.400  -5.127  -2.363  0.00  0.00    +0.314 C 
ATOM      6  C   UNL     1      -0.923  -6.350  -3.140  0.00  0.00    +0.114 C 
ATOM      7  O   UNL     1      -2.263  -4.329  -3.166  0.00  0.00    -0.444 OA
ATOM      8  C   UNL     1      -1.843  -3.006  -3.157  0.00  0.00    +0.144 A 
ATOM      9  C   UNL     1      -0.612  -2.850  -2.569  0.00  0.00    +0.079 A 
ATOM     10  C   UNL     1      -0.274  -4.181  -2.047  0.00  0.00    +0.250 C 
ATOM     11  O   UNL     1       0.689  -4.468  -1.289  0.00  0.00    -0.284 OA
ATOM     12  C   UNL     1      -0.038  -1.570  -2.388  0.00  0.00    +0.046 A 
ATOM     13  C   UNL     1      -0.848  -0.431  -2.691  0.00  0.00    +0.071 A 
ATOM     14  C   UNL     1      -2.170  -0.633  -3.224  0.00  0.00    +0.135 A 
ATOM     15  C   UNL     1      -2.611  -1.925  -3.564  0.00  0.00    +0.034 A 
ATOM     16  C   UNL     1      -3.993  -2.157  -4.114  0.00  0.00    +0.051 C 
ATOM     17  C   UNL     1      -0.326   0.866  -2.447  0.00  0.00    +0.150 A 
ATOM     18  C   UNL     1       0.965   1.028  -1.881  0.00  0.00    +0.089 A 
ATOM     19  N   UNL     1       1.424   2.325  -1.453  0.00  0.00    -0.278 N 
ATOM     20  C   UNL     1       1.402   3.495  -2.278  0.00  0.00    +0.244 C 
ATOM     21  O   UNL     1       1.500   3.371  -3.528  0.00  0.00    -0.270 OA
ATOM     22  C   UNL     1       1.279   4.855  -1.687  0.00  0.00    +0.012 C 
ATOM     23  C   UNL     1       1.947   5.997  -2.405  0.00  0.00    +0.049 C 
ATOM     24  C   UNL     1       0.523   5.143  -0.602  0.00  0.00    +0.008 C 
ATOM     25  C   UNL     1      -0.284   4.170   0.172  0.00  0.00    -0.003 C 
ATOM     26  C   UNL     1      -0.919   4.531   1.291  0.00  0.00    -0.021 C 
ATOM     27  C   UNL     1      -1.576   3.521   2.211  0.00  0.00    +0.037 C 
ATOM     28  C   UNL     1      -0.491   2.612   2.818  0.00  0.00    +0.014 C 
ATOM     29  C   UNL     1      -2.709   2.712   1.500  0.00  0.00    +0.126 C 
ATOM     30  C   UNL     1      -3.412   1.654   2.416  0.00  0.00    +0.044 C 
ATOM     31  C   UNL     1      -4.019   2.334   3.665  0.00  0.00    +0.013 C 
ATOM     32  C   UNL     1      -4.502   0.787   1.676  0.00  0.00    +0.126 C 
ATOM     33  C   UNL     1      -4.460  -0.741   2.045  0.00  0.00    +0.056 C 
ATOM     34  C   UNL     1      -4.505  -0.987   3.569  0.00  0.00    +0.014 C 
ATOM     35  C   UNL     1      -5.585  -1.552   1.294  0.00  0.00    +0.187 C 
ATOM     36  C   UNL     1      -5.024  -2.745   0.468  0.00  0.00    +0.060 C 
ATOM     37  C   UNL     1      -6.125  -3.312  -0.452  0.00  0.00    +0.014 C 
ATOM     38  C   UNL     1       1.777  -0.104  -1.640  0.00  0.00    +0.061 A 
ATOM     39  C   UNL     1       1.295  -1.393  -1.954  0.00  0.00    +0.136 A 
ATOM     40  H   UNL     1       1.819   2.416  -0.490  0.00  0.00    +0.155 HD
ENDROOT
BRANCH   1  42
ATOM     41  C   UNL     1      -4.807  -5.137   3.251  0.00  0.00    +0.194 C 
ATOM     42  O   UNL     1      -5.378  -4.497   2.127  0.00  0.00    -0.375 OA
ENDBRANCH   1  42
BRANCH  14  43
ATOM     43  O   UNL     1      -3.095   0.406  -3.381  0.00  0.00    -0.506 OA
ATOM     44  H   UNL     1      -3.220   1.136  -2.696  0.00  0.00    +0.292 HD
ENDBRANCH  14  43
BRANCH  17  45
ATOM     45  O   UNL     1      -1.110   1.980  -2.756  0.00  0.00    -0.504 OA
ATOM     46  H   UNL     1      -0.980   2.906  -2.376  0.00  0.00    +0.292 HD
ENDBRANCH  17  45
BRANCH  29  47
ATOM     47  O   UNL     1      -3.675   3.604   0.995  0.00  0.00    -0.391 OA
ATOM     48  H   UNL     1      -3.382   3.871   0.086  0.00  0.00    +0.210 HD
ENDBRANCH  29  47
BRANCH  32  49
ATOM     49  O   UNL     1      -4.414   0.939   0.277  0.00  0.00    -0.391 OA
ATOM     50  H   UNL     1      -3.608   0.447  -0.034  0.00  0.00    +0.210 HD
ENDBRANCH  32  49
BRANCH  38  51
ATOM     51  C   UNL     1       3.131   0.044  -1.045  0.00  0.00    +0.143 C 
ATOM     52  N   UNL     1       3.874   1.073  -1.321  0.00  0.00    -0.192 NA
BRANCH  52  53
ATOM     53  N   UNL     1       5.151   1.314  -0.771  0.00  0.00    -0.253 N 
ATOM     54  C   UNL     1       5.701   0.487   0.310  0.00  0.00    +0.141 C 
ATOM     55  C   UNL     1       7.027   1.058   0.816  0.00  0.00    +0.105 C 
ATOM     56  N   UNL     1       7.923   1.326  -0.330  0.00  0.00    -0.296 NA
ATOM     57  C   UNL     1       7.353   2.343  -1.262  0.00  0.00    +0.105 C 
ATOM     58  C   UNL     1       5.830   2.554  -1.137  0.00  0.00    +0.141 C 
BRANCH  56  59
ATOM     59  C   UNL     1       9.290   1.715   0.114  0.00  0.00    +0.057 C 
ATOM     60  C   UNL     1       9.969   0.644   0.970  0.00  0.00    +0.019 C 
ATOM     61  C   UNL     1      11.461   0.867   0.800  0.00  0.00    +0.002 C 
ATOM     62  C   UNL     1      11.644   1.534  -0.558  0.00  0.00    +0.002 C 
ATOM     63  C   UNL     1      10.250   1.883  -1.069  0.00  0.00    +0.019 C 
ENDBRANCH  56  59
ENDBRANCH  52  53
ENDBRANCH  38  51
BRANCH  39  64
ATOM     64  O   UNL     1       2.151  -2.497  -1.907  0.00  0.00    -0.505 OA
ATOM     65  H   UNL     1       3.149  -2.436  -1.751  0.00  0.00    +0.292 HD
ENDBRANCH  39  64
BRANCH  35  66
ATOM     66  O   UNL     1      -6.604  -2.026   2.182  0.00  0.00    -0.461 OA
BRANCH  66  67
ATOM     67  C   UNL     1      -7.686  -1.252   2.618  0.00  0.00    +0.304 C 
ATOM     68  C   UNL     1      -8.644  -1.828   3.602  0.00  0.00    +0.136 C 
ATOM     69  O   UNL     1      -7.836  -0.065   2.223  0.00  0.00    -0.251 OA
ENDBRANCH  66  67
ENDBRANCH  35  66
TORSDOF 11
