REMARK  Name = 
REMARK  19 active torsions:
REMARK  status: ('A' for Active; 'I' for Inactive)
REMARK    1  A    between atoms: C_1  and  O_2
REMARK    2  A    between atoms: O_2  and  C_3
REMARK    3  A    between atoms: C_7  and  C_8
REMARK    4  A    between atoms: C_16  and  O_17
REMARK    5  A    between atoms: C_18  and  C_19
REMARK    6  A    between atoms: C_26  and  C_27
REMARK    7  A    between atoms: C_31  and  C_32
REMARK    8  A    between atoms: C_33  and  O_34
REMARK    9  A    between atoms: C_35  and  C_36
REMARK   10  A    between atoms: C_37  and  O_38
REMARK   11  A    between atoms: C_39  and  C_40
REMARK   12  A    between atoms: C_41  and  O_42
REMARK   13  A    between atoms: O_42  and  C_43
REMARK   14  A    between atoms: C_43  and  C_44
REMARK   15  A    between atoms: C_46  and  C_47
REMARK   16  A    between atoms: N_53  and  C_56
REMARK   17  A    between atoms: C_56  and  C_57
REMARK   18  A    between atoms: C_57  and  C_58
REMARK   19  A    between atoms: C_57  and  C_59
REMARK                            x       y       z     vdW  Elec       q    Type
REMARK                         _______ _______ _______ _____ _____    ______ ____
ROOT
ATOM      1  C   UNL     1      -3.126  -4.180   2.085  0.00  0.00    +0.150 C 
ATOM      2  C   UNL     1      -2.970  -4.431   0.603  0.00  0.00    +0.042 C 
ATOM      3  C   UNL     1      -1.786  -4.613   0.030  0.00  0.00    +0.190 C 
ATOM      4  O   UNL     1      -1.718  -4.673  -1.363  0.00  0.00    -0.453 OA
ATOM      5  C   UNL     1      -0.513  -4.572  -2.121  0.00  0.00    +0.314 C 
ATOM      6  C   UNL     1       0.277  -5.880  -2.085  0.00  0.00    +0.114 C 
ATOM      7  O   UNL     1      -0.867  -4.237  -3.462  0.00  0.00    -0.444 OA
ATOM      8  C   UNL     1      -0.496  -2.927  -3.754  0.00  0.00    +0.143 A 
ATOM      9  C   UNL     1       0.253  -2.373  -2.751  0.00  0.00    +0.077 A 
ATOM     10  C   UNL     1       0.312  -3.384  -1.702  0.00  0.00    +0.250 C 
ATOM     11  O   UNL     1       0.905  -3.273  -0.599  0.00  0.00    -0.284 OA
ATOM     12  C   UNL     1       0.719  -1.051  -2.829  0.00  0.00    +0.031 A 
ATOM     13  C   UNL     1       0.320  -0.255  -3.945  0.00  0.00    +0.075 A 
ATOM     14  C   UNL     1      -0.405  -0.872  -5.013  0.00  0.00    +0.135 A 
ATOM     15  C   UNL     1      -0.844  -2.208  -4.899  0.00  0.00    +0.034 A 
ATOM     16  C   UNL     1      -1.638  -2.859  -5.997  0.00  0.00    +0.051 C 
ATOM     17  C   UNL     1       0.641   1.218  -3.916  0.00  0.00    +0.213 C 
ATOM     18  O   UNL     1       0.161   2.003  -4.775  0.00  0.00    -0.285 OA
ATOM     19  C   UNL     1       1.508   1.777  -2.840  0.00  0.00    +0.105 C 
ATOM     20  N   UNL     1       1.934   3.146  -2.849  0.00  0.00    -0.277 N 
ATOM     21  C   UNL     1       1.008   4.226  -2.681  0.00  0.00    +0.244 C 
ATOM     22  O   UNL     1      -0.211   4.065  -2.960  0.00  0.00    -0.270 OA
ATOM     23  C   UNL     1       1.470   5.532  -2.160  0.00  0.00    +0.012 C 
ATOM     24  C   UNL     1       2.726   6.136  -2.722  0.00  0.00    +0.049 C 
ATOM     25  C   UNL     1       0.808   6.199  -1.194  0.00  0.00    +0.008 C 
ATOM     26  C   UNL     1      -0.373   5.702  -0.460  0.00  0.00    -0.003 C 
ATOM     27  C   UNL     1      -0.446   4.468   0.061  0.00  0.00    -0.021 C 
ATOM     28  C   UNL     1      -1.641   4.024   0.869  0.00  0.00    +0.037 C 
ATOM     29  C   UNL     1      -1.254   4.006   2.354  0.00  0.00    +0.014 C 
ATOM     30  C   UNL     1      -2.156   2.629   0.387  0.00  0.00    +0.126 C 
ATOM     31  C   UNL     1      -3.606   2.290   0.885  0.00  0.00    +0.044 C 
ATOM     32  C   UNL     1      -4.690   3.106   0.145  0.00  0.00    +0.013 C 
ATOM     33  C   UNL     1      -3.943   0.763   0.788  0.00  0.00    +0.126 C 
ATOM     34  C   UNL     1      -3.247  -0.151   1.853  0.00  0.00    +0.056 C 
ATOM     35  C   UNL     1      -3.659   0.234   3.291  0.00  0.00    +0.014 C 
ATOM     36  C   UNL     1      -3.567  -1.661   1.570  0.00  0.00    +0.187 C 
ATOM     37  C   UNL     1      -2.797  -2.697   2.459  0.00  0.00    +0.060 C 
ATOM     38  C   UNL     1      -1.275  -2.443   2.455  0.00  0.00    +0.014 C 
ATOM     39  C   UNL     1       1.936   0.953  -1.884  0.00  0.00    +0.080 C 
ATOM     40  N   UNL     1       2.854   1.236  -0.851  0.00  0.00    -0.317 N 
ATOM     41  C   UNL     1       3.161  -0.058  -0.223  0.00  0.00    +0.128 C 
ATOM     42  C   UNL     1       2.804  -0.019   1.276  0.00  0.00    +0.065 C 
ATOM     43  C   UNL     1       3.888   0.736   2.057  0.00  0.00    +0.088 C 
ATOM     44  N   UNL     1       5.247   0.139   1.919  0.00  0.00    -0.302 NA
ATOM     45  C   UNL     1       5.378  -0.846   0.815  0.00  0.00    +0.088 C 
ATOM     46  C   UNL     1       4.655  -0.405  -0.465  0.00  0.00    +0.065 C 
ATOM     47  N   UNL     1       2.296  -1.032  -0.915  0.00  0.00    -0.256 NA
ATOM     48  C   UNL     1       1.608  -0.432  -1.828  0.00  0.00    +0.092 C 
ATOM     49  H   UNL     1       2.943   3.339  -2.655  0.00  0.00    +0.155 HD
ATOM     50  H   UNL     1       3.305   2.155  -0.641  0.00  0.00    +0.148 HD
ENDROOT
BRANCH   1  52
ATOM     51  C   UNL     1      -4.681  -5.847   2.590  0.00  0.00    +0.194 C 
ATOM     52  O   UNL     1      -4.465  -4.456   2.475  0.00  0.00    -0.375 OA
ENDBRANCH   1  52
BRANCH  14  53
ATOM     53  O   UNL     1      -0.683  -0.205  -6.211  0.00  0.00    -0.506 OA
ATOM     54  H   UNL     1      -0.141   0.571  -6.554  0.00  0.00    +0.292 HD
ENDBRANCH  14  53
BRANCH  30  55
ATOM     55  O   UNL     1      -2.065   2.493  -1.010  0.00  0.00    -0.391 OA
ATOM     56  H   UNL     1      -2.493   3.283  -1.427  0.00  0.00    +0.210 HD
ENDBRANCH  30  55
BRANCH  33  57
ATOM     57  O   UNL     1      -3.623   0.295  -0.500  0.00  0.00    -0.391 OA
ATOM     58  H   UNL     1      -4.374   0.545  -1.103  0.00  0.00    +0.210 HD
ENDBRANCH  33  57
BRANCH  36  59
ATOM     59  O   UNL     1      -4.976  -1.887   1.713  0.00  0.00    -0.461 OA
BRANCH  59  60
ATOM     60  C   UNL     1      -5.870  -2.010   0.642  0.00  0.00    +0.304 C 
ATOM     61  C   UNL     1      -7.325  -2.185   0.922  0.00  0.00    +0.136 C 
ATOM     62  O   UNL     1      -5.460  -2.016  -0.551  0.00  0.00    -0.251 OA
ENDBRANCH  59  60
ENDBRANCH  36  59
BRANCH  44  63
ATOM     63  C   UNL     1       6.299   1.184   1.881  0.00  0.00    +0.087 C 
BRANCH  63  64
ATOM     64  C   UNL     1       7.623   0.685   2.502  0.00  0.00    -0.003 C 
ATOM     65  C   UNL     1       7.427   0.262   3.964  0.00  0.00    +0.008 C 
ATOM     66  C   UNL     1       8.697   1.777   2.407  0.00  0.00    +0.008 C 
ENDBRANCH  63  64
ENDBRANCH  44  63
TORSDOF 8
