REMARK  Name = 
REMARK  8 active torsions:
REMARK  status: ('A' for Active; 'I' for Inactive)
REMARK    1  A    between atoms: C_1  and  C_2
REMARK    2  A    between atoms: C_4  and  C_5
REMARK    3  A    between atoms: C_6  and  C_7
REMARK    4  A    between atoms: C_10  and  C_11
REMARK    5  A    between atoms: C_12  and  N_13
REMARK    6  A    between atoms: N_13  and  C_14
REMARK    7  A    between atoms: N_19  and  C_20
REMARK    8  A    between atoms: C_23  and  C_26
REMARK                            x       y       z     vdW  Elec       q    Type
REMARK                         _______ _______ _______ _____ _____    ______ ____
ROOT
ATOM      1  C   UNL     1       0.103   0.068  -0.418  0.00  0.00    +0.128 A 
ATOM      2  C   UNL     1       0.070   0.171   0.980  0.00  0.00    +0.063 A 
ATOM      3  C   UNL     1       1.271   0.099   1.683  0.00  0.00    +0.118 A 
ATOM      4  N   UNL     1       2.441  -0.057   1.013  0.00  0.00    -0.223 NA
ATOM      5  C   UNL     1       2.467  -0.134  -0.345  0.00  0.00    +0.221 A 
ATOM      6  N   UNL     1       3.703  -0.326  -1.048  0.00  0.00    -0.284 N 
ATOM      7  N   UNL     1       1.301  -0.080  -1.044  0.00  0.00    -0.199 NA
ATOM      8  H   UNL     1       3.649  -0.675  -2.032  0.00  0.00    +0.155 HD
ENDROOT
BRANCH   6   9
ATOM      9  C   UNL     1       5.003  -0.174  -0.454  0.00  0.00    +0.034 A 
ATOM     10  C   UNL     1       6.055  -0.999  -0.880  0.00  0.00    +0.024 A 
ATOM     11  C   UNL     1       7.335  -0.856  -0.334  0.00  0.00    +0.020 A 
ATOM     12  C   UNL     1       7.579   0.127   0.633  0.00  0.00    +0.052 A 
ATOM     13  C   UNL     1       6.541   0.971   1.045  0.00  0.00    +0.020 A 
ATOM     14  C   UNL     1       5.261   0.827   0.500  0.00  0.00    +0.024 A 
BRANCH  12  15
ATOM     15  C   UNL     1       8.897   0.276   1.193  0.00  0.00    +0.099 C 
ATOM     16  N   UNL     1       9.956   0.396   1.643  0.00  0.00    -0.191 NA
ENDBRANCH  12  15
ENDBRANCH   6   9
BRANCH   1  17
ATOM     17  N   UNL     1      -1.094   0.135  -1.210  0.00  0.00    -0.299 N 
ATOM     18  H   UNL     1      -1.000   0.269  -2.242  0.00  0.00    +0.154 HD
BRANCH  17  26
ATOM     19  C   UNL     1      -2.152  -2.322  -0.038  0.00  0.00    +0.046 C 
ATOM     20  C   UNL     1      -2.950  -1.046  -0.082  0.00  0.00    -0.028 A 
ATOM     21  C   UNL     1      -4.232  -1.021   0.490  0.00  0.00    +0.013 A 
ATOM     22  C   UNL     1      -5.013   0.149   0.457  0.00  0.00    -0.024 A 
ATOM     23  C   UNL     1      -4.479   1.307  -0.125  0.00  0.00    +0.013 A 
ATOM     24  C   UNL     1      -3.190   1.308  -0.680  0.00  0.00    -0.028 A 
ATOM     25  C   UNL     1      -2.641   2.567  -1.294  0.00  0.00    +0.046 C 
ATOM     26  C   UNL     1      -2.416   0.131  -0.649  0.00  0.00    +0.038 A 
BRANCH  22  27
ATOM     27  C   UNL     1      -6.373   0.215   1.048  0.00  0.00    +0.019 C 
ATOM     28  C   UNL     1      -7.143  -0.856   1.267  0.00  0.00    +0.089 C 
BRANCH  28  29
ATOM     29  C   UNL     1      -8.459  -0.704   1.828  0.00  0.00    +0.091 C 
ATOM     30  N   UNL     1      -9.517  -0.582   2.280  0.00  0.00    -0.191 NA
ENDBRANCH  28  29
ENDBRANCH  22  27
ENDBRANCH  17  26
ENDBRANCH   1  17
TORSDOF 6
