REMARK  Name = 
REMARK  2 active torsions:
REMARK  status: ('A' for Active; 'I' for Inactive)
REMARK    1  A    between atoms: C_8  and  O_9
REMARK    2  A    between atoms: O_9  and  C_10
REMARK                            x       y       z     vdW  Elec       q    Type
REMARK                         _______ _______ _______ _____ _____    ______ ____
ROOT
ATOM      1  N   UNL     1      -4.647  -0.484   0.031  0.00  0.00    -0.337 N 
ATOM      2  C   UNL     1      -3.235  -0.314   0.111  0.00  0.00    +0.157 A 
ATOM      3  N   UNL     1      -2.413  -0.471  -0.954  0.00  0.00    -0.225 NA
ATOM      4  C   UNL     1      -1.123  -0.250  -0.594  0.00  0.00    +0.080 A 
ATOM      5  C   UNL     1      -0.927   0.078   0.738  0.00  0.00    +0.044 A 
ATOM      6  S   UNL     1      -2.409   0.101   1.529  0.00  0.00    -0.053 S 
ATOM      7  C   UNL     1       0.338   0.334   1.258  0.00  0.00    +0.063 A 
ATOM      8  C   UNL     1       1.449   0.255   0.399  0.00  0.00    +0.131 A 
ATOM      9  C   UNL     1       1.253  -0.081  -0.967  0.00  0.00    +0.048 A 
ATOM     10  C   UNL     1      -0.037  -0.334  -1.464  0.00  0.00    +0.032 A 
ATOM     11  H   UNL     1      -5.096  -0.741  -0.876  0.00  0.00    +0.144 HD
ATOM     12  H   UNL     1      -5.243  -0.353   0.878  0.00  0.00    +0.144 HD
ENDROOT
BRANCH   8  13
ATOM     13  O   UNL     1       2.719   0.515   0.940  0.00  0.00    -0.406 OA
BRANCH  13  14
ATOM     14  C   UNL     1       3.945   0.480   0.214  0.00  0.00    +0.575 C 
ATOM     15  F   UNL     1       4.983   0.789   1.073  0.00  0.00    -0.133 F 
ATOM     16  F   UNL     1       3.921   1.411  -0.809  0.00  0.00    -0.133 F 
ATOM     17  F   UNL     1       4.157  -0.785  -0.303  0.00  0.00    -0.133 F 
ENDBRANCH  13  14
ENDBRANCH   8  13
TORSDOF 2
