REMARK  Name = 
REMARK  3 active torsions:
REMARK  status: ('A' for Active; 'I' for Inactive)
REMARK    1  A    between atoms: C_1  and  C_2
REMARK    2  A    between atoms: C_2  and  N_3
REMARK    3  A    between atoms: C_2  and  C_4
REMARK                            x       y       z     vdW  Elec       q    Type
REMARK                         _______ _______ _______ _____ _____    ______ ____
ROOT
ATOM      1  C   UNL     1       0.641  -0.077   0.132  0.00  0.00    -0.014 C 
ATOM      2  C   UNL     1       0.141   0.028  -1.342  0.00  0.00    +0.012 C 
ATOM      3  C   UNL     1      -1.404   0.067  -1.384  0.00  0.00    -0.010 C 
ATOM      4  C   UNL     1      -1.972  -1.222  -0.755  0.00  0.00    +0.007 C 
ATOM      5  C   UNL     1      -1.511  -1.326   0.714  0.00  0.00    -0.010 C 
ATOM      6  C   UNL     1      -2.018  -0.103   1.504  0.00  0.00    +0.007 C 
ATOM      7  C   UNL     1      -1.450   1.186   0.875  0.00  0.00    -0.010 C 
ATOM      8  C   UNL     1      -1.912   1.292  -0.593  0.00  0.00    +0.007 C 
ATOM      9  C   UNL     1       0.094   1.151   0.925  0.00  0.00    +0.012 C 
ATOM     10  C   UNL     1       0.031  -1.367   0.765  0.00  0.00    +0.012 C 
ENDROOT
BRANCH   1  12
ATOM     11  C   UNL     1       2.950   1.096  -0.287  0.00  0.00    +0.024 C 
ATOM     12  C   UNL     1       2.206  -0.153   0.231  0.00  0.00    +0.054 C 
BRANCH  12  13
ATOM     13  N   UNL     1       2.716  -1.356  -0.438  0.00  0.00    -0.327 NA
ATOM     14  H   UNL     1       2.753  -1.197  -1.471  0.00  0.00    +0.118 HD
ATOM     15  H   UNL     1       3.699  -1.524  -0.121  0.00  0.00    +0.118 HD
ENDBRANCH  12  13
ENDBRANCH   1  12
TORSDOF 2
