REMARK  Name = 
REMARK  8 active torsions:
REMARK  status: ('A' for Active; 'I' for Inactive)
REMARK    1  A    between atoms: C_1  and  C_2
REMARK    2  A    between atoms: C_2  and  C_3
REMARK    3  A    between atoms: C_3  and  C_5
REMARK    4  A    between atoms: C_5  and  C_6
REMARK    5  A    between atoms: C_7  and  C_8
REMARK    6  A    between atoms: C_20  and  C_21
REMARK    7  A    between atoms: C_23  and  O_24
REMARK    8  A    between atoms: C_26  and  C_27
REMARK                            x       y       z     vdW  Elec       q    Type
REMARK                         _______ _______ _______ _____ _____    ______ ____
ROOT
ATOM      1  C   UNL     1      -2.084   0.799  -1.008  0.00  0.00    +0.034 C 
ATOM      2  C   UNL     1      -2.219   1.272  -2.491  0.00  0.00    +0.020 C 
ATOM      3  C   UNL     1      -1.320   1.851  -0.116  0.00  0.00    -0.000 C 
ATOM      4  C   UNL     1      -0.521   2.955  -0.844  0.00  0.00    +0.008 C 
ATOM      5  C   UNL     1      -0.420   1.044   0.836  0.00  0.00    +0.008 C 
ATOM      6  C   UNL     1      -0.684  -0.448   0.575  0.00  0.00    -0.000 C 
ATOM      7  C   UNL     1       0.492  -1.419   0.903  0.00  0.00    -0.000 C 
ATOM      8  C   UNL     1       0.967  -1.312   2.390  0.00  0.00    +0.008 C 
ATOM      9  C   UNL     1       2.469  -1.075   2.552  0.00  0.00    +0.032 C 
ATOM     10  C   UNL     1       2.903  -0.033   1.562  0.00  0.00    -0.056 C 
ATOM     11  C   UNL     1       3.240   1.198   1.982  0.00  0.00    +0.051 C 
ATOM     12  C   UNL     1       3.427   2.286   1.020  0.00  0.00    +0.179 C 
ATOM     13  O   UNL     1       3.816   3.419   1.408  0.00  0.00    -0.288 OA
ATOM     14  C   UNL     1       3.100   2.062  -0.388  0.00  0.00    +0.047 C 
ATOM     15  C   UNL     1       2.748   0.847  -0.816  0.00  0.00    -0.012 C 
ATOM     16  C   UNL     1       2.837  -0.396   0.075  0.00  0.00    +0.013 C 
ATOM     17  C   UNL     1       4.186  -1.064  -0.285  0.00  0.00    +0.020 C 
ATOM     18  C   UNL     1       1.656  -1.443  -0.147  0.00  0.00    +0.035 C 
ATOM     19  C   UNL     1       1.106  -1.568  -1.595  0.00  0.00    +0.120 C 
ATOM     20  C   UNL     1      -0.043  -0.577  -1.890  0.00  0.00    +0.039 C 
ATOM     21  C   UNL     1      -1.230  -0.539  -0.868  0.00  0.00    -0.014 C 
ATOM     22  C   UNL     1      -2.099  -1.815  -1.058  0.00  0.00    +0.012 C 
ENDROOT
BRANCH   1  23
ATOM     23  C   UNL     1      -3.535   0.607  -0.476  0.00  0.00    +0.140 C 
ATOM     24  O   UNL     1      -4.412   0.261  -1.263  0.00  0.00    -0.297 OA
BRANCH  23  26
ATOM     25  C   UNL     1      -4.893  -0.298   1.473  0.00  0.00    +0.012 C 
ATOM     26  C   UNL     1      -3.946   0.799   0.977  0.00  0.00    +0.071 C 
ENDBRANCH  23  26
ENDBRANCH   1  23
BRANCH  19  27
ATOM     27  O   UNL     1       0.669  -2.881  -1.839  0.00  0.00    -0.391 OA
ATOM     28  H   UNL     1       1.476  -3.430  -2.022  0.00  0.00    +0.210 HD
ENDBRANCH  19  27
TORSDOF 3
