REMARK  Name = 
REMARK  5 active torsions:
REMARK  status: ('A' for Active; 'I' for Inactive)
REMARK    1  A    between atoms: C_1  and  C_2
REMARK    2  A    between atoms: C_3  and  C_24
REMARK    3  A    between atoms: N_4  and  C_16
REMARK    4  A    between atoms: C_6  and  C_7
REMARK    5  A    between atoms: N_9  and  N_10
REMARK                            x       y       z     vdW  Elec       q    Type
REMARK                         _______ _______ _______ _____ _____    ______ ____
ROOT
ATOM      1  C   UNL     1      -0.234  -2.822   0.173  0.00  0.00    +0.048 C 
ATOM      2  C   UNL     1      -0.554  -1.357   0.116  0.00  0.00    +0.008 A 
ATOM      3  C   UNL     1      -1.806  -0.760   0.137  0.00  0.00    +0.078 A 
ATOM      4  N   UNL     1      -1.633   0.582   0.118  0.00  0.00    -0.230 N 
ATOM      5  N   UNL     1      -0.341   0.868   0.087  0.00  0.00    -0.161 NA
ATOM      6  C   UNL     1       0.343  -0.294   0.075  0.00  0.00    +0.152 A 
ENDROOT
BRANCH   4   7
ATOM      7  C   UNL     1      -2.651   1.592   0.128  0.00  0.00    +0.084 A 
ATOM      8  C   UNL     1      -3.576   1.709  -0.930  0.00  0.00    +0.068 A 
ATOM      9 CL   UNL     1      -3.474   0.686  -2.357  0.00  0.00    -0.081 Cl
ATOM     10  C   UNL     1      -4.572   2.692  -0.877  0.00  0.00    +0.042 A 
ATOM     11  C   UNL     1      -4.645   3.564   0.213  0.00  0.00    +0.042 A 
ATOM     12 CL   UNL     1      -5.896   4.793   0.272  0.00  0.00    -0.083 Cl
ATOM     13  C   UNL     1      -3.714   3.464   1.251  0.00  0.00    +0.022 A 
ATOM     14  C   UNL     1      -2.718   2.486   1.205  0.00  0.00    +0.031 A 
ENDBRANCH   4   7
BRANCH   3  15
ATOM     15  C   UNL     1      -3.114  -1.448   0.211  0.00  0.00    +0.001 A 
ATOM     16  C   UNL     1      -3.427  -2.477  -0.692  0.00  0.00    +0.011 A 
ATOM     17  C   UNL     1      -4.672  -3.110  -0.637  0.00  0.00    +0.020 A 
ATOM     18  C   UNL     1      -5.615  -2.720   0.319  0.00  0.00    +0.041 A 
ATOM     19 CL   UNL     1      -7.178  -3.513   0.384  0.00  0.00    -0.084 Cl
ATOM     20  C   UNL     1      -5.311  -1.696   1.222  0.00  0.00    +0.020 A 
ATOM     21  C   UNL     1      -4.066  -1.062   1.169  0.00  0.00    +0.011 A 
ENDBRANCH   3  15
BRANCH   6  22
ATOM     22  C   UNL     1       1.817  -0.362   0.018  0.00  0.00    +0.278 C 
ATOM     23  O   UNL     1       2.385  -1.481  -0.095  0.00  0.00    -0.267 OA
ATOM     24  N   UNL     1       2.597   0.850   0.078  0.00  0.00    -0.243 N 
ATOM     25  H   UNL     1       2.094   1.759   0.181  0.00  0.00    +0.170 HD
BRANCH  24  26
ATOM     26  N   UNL     1       4.010   0.903   0.039  0.00  0.00    -0.227 NA
ATOM     27  C   UNL     1       4.525   0.477  -1.280  0.00  0.00    +0.105 C 
ATOM     28  C   UNL     1       6.038   0.169  -1.240  0.00  0.00    +0.017 C 
ATOM     29  C   UNL     1       6.726   0.894  -0.079  0.00  0.00    +0.003 C 
ATOM     30  C   UNL     1       6.103   0.507   1.277  0.00  0.00    +0.017 C 
ATOM     31  C   UNL     1       4.607   0.162   1.161  0.00  0.00    +0.105 C 
ENDBRANCH  24  26
ENDBRANCH   6  22
TORSDOF 4
