REMARK  Name = 
REMARK  9 active torsions:
REMARK  status: ('A' for Active; 'I' for Inactive)
REMARK    1  A    between atoms: O_1  and  C_2
REMARK    2  A    between atoms: C_2  and  C_3
REMARK    3  A    between atoms: C_2  and  P_10
REMARK    4  A    between atoms: C_2  and  P_14
REMARK    5  A    between atoms: C_3  and  C_4
REMARK    6  A    between atoms: P_10  and  O_11
REMARK    7  A    between atoms: P_10  and  O_12
REMARK    8  A    between atoms: P_14  and  O_15
REMARK    9  A    between atoms: P_14  and  O_16
REMARK                            x       y       z     vdW  Elec       q    Type
REMARK                         _______ _______ _______ _____ _____    ______ ____
ROOT
ATOM      1  C   UNL     1      -1.000  -0.421   0.153  0.00  0.00    +0.271 C 
ENDROOT
BRANCH   1   2
ATOM      2  O   UNL     1      -0.981  -0.975   1.446  0.00  0.00    -0.367 OA
ATOM      3  H   UNL     1      -0.360  -0.440   2.005  0.00  0.00    +0.212 HD
ENDBRANCH   1   2
BRANCH   1   4
ATOM      4  P   UNL     1      -2.425  -1.151  -0.731  0.00  0.00    +0.371 P 
ATOM      5  O   UNL     1      -2.519  -0.575  -2.126  0.00  0.00    -0.255 OA
BRANCH   4   6
ATOM      6  O   UNL     1      -2.220  -2.828  -0.836  0.00  0.00    -0.322 OA
ATOM      7  H   UNL     1      -3.054  -3.159  -1.256  0.00  0.00    +0.220 HD
ENDBRANCH   4   6
BRANCH   4   8
ATOM      8  O   UNL     1      -3.861  -0.822   0.103  0.00  0.00    -0.322 OA
ATOM      9  H   UNL     1      -3.767  -1.300   0.966  0.00  0.00    +0.220 HD
ENDBRANCH   4   8
ENDBRANCH   1   4
BRANCH   1  10
ATOM     10  P   UNL     1      -1.244   1.403   0.237  0.00  0.00    +0.371 P 
ATOM     11  O   UNL     1      -0.175   2.037   1.100  0.00  0.00    -0.255 OA
BRANCH  10  12
ATOM     12  O   UNL     1      -1.160   2.058  -1.321  0.00  0.00    -0.322 OA
ATOM     13  H   UNL     1      -1.359   3.021  -1.202  0.00  0.00    +0.220 HD
ENDBRANCH  10  12
BRANCH  10  14
ATOM     14  O   UNL     1      -2.760   1.754   0.904  0.00  0.00    -0.322 OA
ATOM     15  H   UNL     1      -2.735   1.360   1.813  0.00  0.00    +0.220 HD
ENDBRANCH  10  14
ENDBRANCH   1  10
BRANCH   1  16
ATOM     16  C   UNL     1       0.292  -0.793  -0.620  0.00  0.00    +0.097 C 
BRANCH  16  17
ATOM     17  C   UNL     1       1.569  -0.321   0.036  0.00  0.00    -0.025 A 
ATOM     18  C   UNL     1       2.162  -1.065   1.069  0.00  0.00    +0.114 A 
ATOM     19  N   UNL     1       3.313  -0.634   1.651  0.00  0.00    -0.263 NA
ATOM     20  C   UNL     1       3.927   0.512   1.256  0.00  0.00    +0.111 A 
ATOM     21  C   UNL     1       3.381   1.280   0.227  0.00  0.00    +0.020 A 
ATOM     22  C   UNL     1       2.200   0.859  -0.388  0.00  0.00    +0.007 A 
ENDBRANCH  16  17
ENDBRANCH   1  16
TORSDOF 9
