REMARK  Name = 
REMARK  5 active torsions:
REMARK  status: ('A' for Active; 'I' for Inactive)
REMARK    1  A    between atoms: C_1  and  C_2
REMARK    2  A    between atoms: C_3  and  C_4
REMARK    3  A    between atoms: C_4  and  C_5
REMARK    4  A    between atoms: C_5  and  N_6
REMARK    5  A    between atoms: C_9  and  C_12
REMARK                            x       y       z     vdW  Elec       q    Type
REMARK                         _______ _______ _______ _____ _____    ______ ____
ROOT
ATOM      1  N   UNL     1      -0.846  -0.185   0.614  0.00  0.00    -0.302 NA
ATOM      2  C   UNL     1      -1.462  -0.131  -0.730  0.00  0.00    +0.085 C 
ATOM      3  C   UNL     1      -2.899  -0.661  -0.683  0.00  0.00    +0.025 C 
ATOM      4  C   UNL     1      -3.736   0.150   0.315  0.00  0.00    +0.044 C 
ATOM      5  C   UNL     1      -3.046   0.172   1.689  0.00  0.00    +0.025 C 
ATOM      6  C   UNL     1      -1.602   0.669   1.555  0.00  0.00    +0.085 C 
ENDROOT
BRANCH   4   7
ATOM      7  C   UNL     1      -5.127  -0.417   0.410  0.00  0.00    +0.094 A 
ATOM      8  N   UNL     1      -5.480  -1.476   1.181  0.00  0.00    -0.082 NA
ATOM      9  O   UNL     1      -6.740  -1.735   0.947  0.00  0.00    -0.354 OA
ATOM     10  C   UNL     1      -7.213  -0.903   0.052  0.00  0.00    +0.170 A 
ATOM     11  C   UNL     1      -6.226  -0.043  -0.334  0.00  0.00    +0.045 A 
ATOM     12  C   UNL     1      -6.436   0.939  -1.300  0.00  0.00    +0.016 A 
ATOM     13  C   UNL     1      -7.722   1.028  -1.866  0.00  0.00    +0.039 A 
ATOM     14  C   UNL     1      -8.748   0.143  -1.460  0.00  0.00    +0.127 A 
ATOM     15  F   UNL     1      -9.982   0.240  -2.015  0.00  0.00    -0.205 F 
ATOM     16  C   UNL     1      -8.496  -0.843  -0.486  0.00  0.00    +0.088 A 
ENDBRANCH   4   7
BRANCH   1  17
ATOM     17  C   UNL     1       0.572   0.234   0.560  0.00  0.00    +0.089 C 
BRANCH  17  18
ATOM     18  C   UNL     1       1.470  -0.954   0.190  0.00  0.00    +0.058 C 
BRANCH  18  21
ATOM     19  C   UNL     1       3.135  -1.418   2.665  0.00  0.00    +0.066 C 
ATOM     20  C   UNL     1       3.699  -0.765   1.436  0.00  0.00    +0.049 A 
ATOM     21  C   UNL     1       2.934  -0.567   0.266  0.00  0.00    +0.039 A 
ATOM     22  C   UNL     1       3.556   0.071  -0.827  0.00  0.00    +0.258 A 
ATOM     23  O   UNL     1       2.887   0.308  -1.872  0.00  0.00    -0.267 OA
ATOM     24  N   UNL     1       4.875   0.437  -0.758  0.00  0.00    -0.296 N 
ATOM     25  C   UNL     1       5.550   1.133  -1.868  0.00  0.00    +0.126 C 
ATOM     26  C   UNL     1       6.949   0.543  -2.110  0.00  0.00    +0.022 C 
ATOM     27  C   UNL     1       7.766   0.311  -0.814  0.00  0.00    +0.009 C 
ATOM     28  C   UNL     1       7.013   0.666   0.476  0.00  0.00    +0.074 C 
ATOM     29  C   UNL     1       5.585   0.217   0.389  0.00  0.00    +0.113 A 
ATOM     30  N   UNL     1       4.996  -0.369   1.460  0.00  0.00    -0.238 NA
ENDBRANCH  18  21
ENDBRANCH  17  18
ENDBRANCH   1  17
TORSDOF 4
