REMARK  Name = 
REMARK  10 active torsions:
REMARK  status: ('A' for Active; 'I' for Inactive)
REMARK    1  A    between atoms: C_1  and  C_2
REMARK    2  A    between atoms: C_2  and  N_3
REMARK    3  A    between atoms: C_2  and  C_13
REMARK    4  A    between atoms: N_3  and  C_4
REMARK    5  A    between atoms: C_4  and  C_5
REMARK    6  A    between atoms: C_5  and  C_6
REMARK    7  A    between atoms: C_9  and  O_10
REMARK    8  A    between atoms: C_13  and  O_14
REMARK    9  A    between atoms: C_13  and  C_15
REMARK   10  A    between atoms: C_18  and  O_19
REMARK                            x       y       z     vdW  Elec       q    Type
REMARK                         _______ _______ _______ _____ _____    ______ ____
ROOT
ATOM      1  C   UNL     1      -1.091   0.608   1.014  0.00  0.00    +0.027 C 
ATOM      2  C   UNL     1      -0.977   0.337  -0.499  0.00  0.00    +0.084 C 
ENDROOT
BRANCH   2   3
ATOM      3  N   UNL     1       0.216   1.017  -1.046  0.00  0.00    -0.310 NA
ATOM      4  H   UNL     1       0.166   1.003  -2.093  0.00  0.00    +0.122 HD
BRANCH   3   5
ATOM      5  C   UNL     1       1.482   0.368  -0.657  0.00  0.00    +0.086 C 
BRANCH   5   6
ATOM      6  C   UNL     1       2.338   1.358   0.132  0.00  0.00    +0.050 C 
BRANCH   6   7
ATOM      7  C   UNL     1       3.624   0.716   0.577  0.00  0.00    -0.046 A 
ATOM      8  C   UNL     1       3.683   0.021   1.796  0.00  0.00    +0.007 A 
ATOM      9  C   UNL     1       4.868  -0.604   2.195  0.00  0.00    +0.045 A 
ATOM     10  C   UNL     1       6.003  -0.549   1.375  0.00  0.00    +0.117 A 
ATOM     11  C   UNL     1       5.945   0.131   0.153  0.00  0.00    +0.045 A 
ATOM     12  C   UNL     1       4.761   0.757  -0.247  0.00  0.00    +0.007 A 
BRANCH  10  13
ATOM     13  O   UNL     1       7.190  -1.167   1.762  0.00  0.00    -0.507 OA
ATOM     14  H   UNL     1       7.265  -1.667   2.640  0.00  0.00    +0.292 HD
ENDBRANCH  10  13
ENDBRANCH   6   7
ENDBRANCH   5   6
ENDBRANCH   3   5
ENDBRANCH   2   3
BRANCH   2  15
ATOM     15  C   UNL     1      -2.252   0.809  -1.254  0.00  0.00    +0.161 C 
BRANCH  15  16
ATOM     16  C   UNL     1      -3.470  -0.006  -0.863  0.00  0.00    -0.017 A 
ATOM     17  C   UNL     1      -4.376   0.448   0.117  0.00  0.00    +0.010 A 
ATOM     18  C   UNL     1      -5.474  -0.336   0.482  0.00  0.00    +0.046 A 
ATOM     19  C   UNL     1      -5.681  -1.582  -0.117  0.00  0.00    +0.117 A 
ATOM     20  C   UNL     1      -4.780  -2.046  -1.085  0.00  0.00    +0.046 A 
ATOM     21  C   UNL     1      -3.680  -1.265  -1.452  0.00  0.00    +0.010 A 
BRANCH  19  22
ATOM     22  O   UNL     1      -6.780  -2.352   0.257  0.00  0.00    -0.507 OA
ATOM     23  H   UNL     1      -6.956  -3.260  -0.156  0.00  0.00    +0.292 HD
ENDBRANCH  19  22
ENDBRANCH  15  16
BRANCH  15  24
ATOM     24  O   UNL     1      -2.486   2.180  -1.037  0.00  0.00    -0.386 OA
ATOM     25  H   UNL     1      -1.844   2.679  -1.606  0.00  0.00    +0.210 HD
ENDBRANCH  15  24
ENDBRANCH   2  15
TORSDOF 9
