REMARK  Name = 
REMARK  24 active torsions:
REMARK  status: ('A' for Active; 'I' for Inactive)
REMARK    1  A    between atoms: C_1  and  C_2
REMARK    2  A    between atoms: C_2  and  C_3
REMARK    3  A    between atoms: C_2  and  C_4
REMARK    4  A    between atoms: C_4  and  N_5
REMARK    5  A    between atoms: C_4  and  C_19
REMARK    6  A    between atoms: N_8  and  C_9
REMARK    7  A    between atoms: N_8  and  C_10
REMARK    8  A    between atoms: C_10  and  C_11
REMARK    9  A    between atoms: C_14  and  C_16
REMARK   10  A    between atoms: C_16  and  C_17
REMARK   11  A    between atoms: C_16  and  C_18
REMARK   12  A    between atoms: N_21  and  C_22
REMARK   13  A    between atoms: C_22  and  C_23
REMARK   14  A    between atoms: C_22  and  C_44
REMARK   15  A    between atoms: C_23  and  C_24
REMARK   16  A    between atoms: C_24  and  O_25
REMARK   17  A    between atoms: C_24  and  C_26
REMARK   18  A    between atoms: C_26  and  C_27
REMARK   19  A    between atoms: C_26  and  N_34
REMARK   20  A    between atoms: C_27  and  C_28
REMARK   21  A    between atoms: C_35  and  O_37
REMARK   22  A    between atoms: O_37  and  C_38
REMARK   23  A    between atoms: C_38  and  C_39
REMARK   24  A    between atoms: C_44  and  C_45
REMARK                            x       y       z     vdW  Elec       q    Type
REMARK                         _______ _______ _______ _____ _____    ______ ____
ROOT
ATOM      1  C   UNL     1       1.357  -1.892  -0.868  0.00  0.00    +0.080 C 
ENDROOT
BRANCH   1   4
ATOM      2  C   UNL     1      -0.752  -1.711   0.548  0.00  0.00    +0.234 C 
ATOM      3  O   UNL     1      -0.914  -2.961   0.591  0.00  0.00    -0.274 OA
ATOM      4  N   UNL     1       0.203  -1.143  -0.359  0.00  0.00    -0.311 N 
ATOM      5  H   UNL     1       0.156  -0.117  -0.555  0.00  0.00    +0.149 HD
BRANCH   2   6
ATOM      6  C   UNL     1      -1.550  -0.813   1.460  0.00  0.00    +0.163 C 
BRANCH   6   7
ATOM      7  N   UNL     1      -2.972  -1.185   1.421  0.00  0.00    -0.288 N 
ATOM      8  C   UNL     1      -4.021  -0.206   1.325  0.00  0.00    +0.303 C 
ATOM      9  O   UNL     1      -3.746   1.015   1.493  0.00  0.00    -0.253 OA
ATOM     10  N   UNL     1      -5.383  -0.601   1.042  0.00  0.00    -0.283 N 
ATOM     11  C   UNL     1      -5.675  -1.941   0.525  0.00  0.00    +0.134 C 
ATOM     12  H   UNL     1      -3.224  -2.193   1.517  0.00  0.00    +0.151 HD
BRANCH  10  13
ATOM     13  C   UNL     1      -6.477   0.374   1.153  0.00  0.00    +0.164 C 
BRANCH  13  14
ATOM     14  C   UNL     1      -6.749   1.011  -0.176  0.00  0.00    +0.066 A 
ATOM     15  C   UNL     1      -5.963   2.034  -0.705  0.00  0.00    +0.071 A 
ATOM     16  S   UNL     1      -6.605   2.451  -2.201  0.00  0.00    -0.080 S 
ATOM     17  C   UNL     1      -7.838   1.311  -2.120  0.00  0.00    +0.081 A 
ATOM     18  N   UNL     1      -7.788   0.615  -0.963  0.00  0.00    -0.247 NA
BRANCH  17  19
ATOM     19  C   UNL     1      -8.923   1.150  -3.149  0.00  0.00    +0.038 C 
ATOM     20  C   UNL     1      -9.101  -0.322  -3.530  0.00  0.00    +0.014 C 
ATOM     21  C   UNL     1     -10.235   1.745  -2.631  0.00  0.00    +0.014 C 
ENDBRANCH  17  19
ENDBRANCH  13  14
ENDBRANCH  10  13
ENDBRANCH   6   7
BRANCH   6  23
ATOM     22  C   UNL     1      -1.533   0.344   3.732  0.00  0.00    +0.009 C 
ATOM     23  C   UNL     1      -0.981  -0.828   2.908  0.00  0.00    +0.012 C 
ATOM     24  C   UNL     1      -1.230  -2.152   3.650  0.00  0.00    +0.009 C 
ENDBRANCH   6  23
ENDBRANCH   2   6
ENDBRANCH   1   4
BRANCH   1  25
ATOM     25  C   UNL     1       2.626  -1.575  -0.040  0.00  0.00    +0.055 C 
BRANCH  25  26
ATOM     26  C   UNL     1       2.879  -0.073   0.244  0.00  0.00    +0.137 C 
BRANCH  26  27
ATOM     27  O   UNL     1       2.963   0.618  -0.978  0.00  0.00    -0.390 OA
ATOM     28  H   UNL     1       2.543   1.508  -0.841  0.00  0.00    +0.210 HD
ENDBRANCH  26  27
BRANCH  26  29
ATOM     29  C   UNL     1       4.190   0.158   1.039  0.00  0.00    +0.109 C 
BRANCH  29  30
ATOM     30  N   UNL     1       4.471   1.599   1.093  0.00  0.00    -0.275 N 
ATOM     31  C   UNL     1       5.748   2.163   0.770  0.00  0.00    +0.401 C 
ATOM     32  O   UNL     1       6.679   1.429   0.333  0.00  0.00    -0.226 OA
ATOM     33  H   UNL     1       3.736   2.237   1.477  0.00  0.00    +0.152 HD
BRANCH  31  34
ATOM     34  O   UNL     1       5.953   3.537   0.951  0.00  0.00    -0.445 OA
BRANCH  34  35
ATOM     35  C   UNL     1       7.165   4.199   0.599  0.00  0.00    +0.278 C 
BRANCH  35  36
ATOM     36  C   UNL     1       7.288   4.295  -0.889  0.00  0.00    +0.046 A 
ATOM     37  C   UNL     1       8.133   3.537  -1.693  0.00  0.00    +0.125 A 
ATOM     38  N   UNL     1       8.008   3.773  -3.027  0.00  0.00    -0.255 NA
ATOM     39  C   UNL     1       7.066   4.706  -3.295  0.00  0.00    +0.156 A 
ATOM     40  S   UNL     1       6.346   5.271  -1.881  0.00  0.00    -0.077 S 
ENDBRANCH  35  36
ENDBRANCH  34  35
ENDBRANCH  31  34
ENDBRANCH  29  30
BRANCH  29  41
ATOM     41  C   UNL     1       4.118  -0.400   2.479  0.00  0.00    +0.060 C 
BRANCH  41  42
ATOM     42  C   UNL     1       5.384  -0.104   3.243  0.00  0.00    -0.046 A 
ATOM     43  C   UNL     1       5.456   1.007   4.101  0.00  0.00    +0.004 A 
ATOM     44  C   UNL     1       6.653   1.314   4.756  0.00  0.00    +0.000 A 
ATOM     45  C   UNL     1       7.786   0.524   4.553  0.00  0.00    +0.000 A 
ATOM     46  C   UNL     1       7.726  -0.576   3.694  0.00  0.00    +0.000 A 
ATOM     47  C   UNL     1       6.531  -0.889   3.039  0.00  0.00    +0.004 A 
ENDBRANCH  41  42
ENDBRANCH  29  41
ENDBRANCH  26  29
ENDBRANCH  25  26
ENDBRANCH   1  25
BRANCH   1  48
ATOM     48  C   UNL     1       1.535  -1.637  -2.378  0.00  0.00    +0.057 C 
BRANCH  48  49
ATOM     49  C   UNL     1       0.438  -2.310  -3.164  0.00  0.00    -0.046 A 
ATOM     50  C   UNL     1      -0.776  -1.646  -3.404  0.00  0.00    +0.004 A 
ATOM     51  C   UNL     1      -1.814  -2.295  -4.078  0.00  0.00    +0.000 A 
ATOM     52  C   UNL     1      -1.647  -3.609  -4.522  0.00  0.00    +0.000 A 
ATOM     53  C   UNL     1      -0.443  -4.278  -4.285  0.00  0.00    +0.000 A 
ATOM     54  C   UNL     1       0.592  -3.636  -3.598  0.00  0.00    +0.004 A 
ENDBRANCH  48  49
ENDBRANCH   1  48
TORSDOF 19
