REMARK  Name = 
REMARK  5 active torsions:
REMARK  status: ('A' for Active; 'I' for Inactive)
REMARK    1  A    between atoms: C_5  and  C_7
REMARK    2  A    between atoms: N_9  and  C_10
REMARK    3  A    between atoms: C_10  and  C_11
REMARK    4  A    between atoms: N_13  and  C_17
REMARK    5  A    between atoms: C_20  and  N_23
REMARK                            x       y       z     vdW  Elec       q    Type
REMARK                         _______ _______ _______ _____ _____    ______ ____
ROOT
ATOM      1  C   UNL     1       2.654  -0.731  -0.749  0.00  0.00    +0.213 C 
ATOM      2  C   UNL     1       1.198  -1.268  -0.632  0.00  0.00    +0.163 C 
ATOM      3  N   UNL     1       0.395  -0.120  -0.221  0.00  0.00    -0.234 N 
ATOM      4  C   UNL     1       1.294   0.951   0.003  0.00  0.00    +0.408 C 
ATOM      5  O   UNL     1       0.961   2.068   0.477  0.00  0.00    -0.226 OA
ATOM      6  O   UNL     1       2.595   0.614  -0.286  0.00  0.00    -0.444 OA
ENDROOT
BRANCH   3   7
ATOM      7  C   UNL     1      -1.043  -0.095  -0.123  0.00  0.00    +0.040 A 
ATOM      8  C   UNL     1      -1.764   1.087  -0.367  0.00  0.00    +0.025 A 
ATOM      9  C   UNL     1      -3.159   1.101  -0.280  0.00  0.00    +0.025 A 
ATOM     10  C   UNL     1      -3.864  -0.071   0.041  0.00  0.00    +0.037 A 
ATOM     11  C   UNL     1      -3.146  -1.253   0.280  0.00  0.00    +0.025 A 
ATOM     12  C   UNL     1      -1.752  -1.267   0.192  0.00  0.00    +0.025 A 
BRANCH  10  13
ATOM     13  N   UNL     1      -5.303  -0.057   0.144  0.00  0.00    -0.267 N 
ATOM     14  C   UNL     1      -5.983   1.072   0.790  0.00  0.00    +0.142 C 
ATOM     15  C   UNL     1      -7.379   0.659   1.269  0.00  0.00    +0.180 C 
ATOM     16  O   UNL     1      -8.109   0.083   0.203  0.00  0.00    -0.369 OA
ATOM     17  C   UNL     1      -7.564  -1.180  -0.131  0.00  0.00    +0.256 C 
ATOM     18  C   UNL     1      -6.106  -1.073  -0.483  0.00  0.00    +0.246 C 
ATOM     19  O   UNL     1      -5.596  -1.895  -1.292  0.00  0.00    -0.273 OA
ENDBRANCH  10  13
ENDBRANCH   3   7
BRANCH   1  20
ATOM     20  C   UNL     1       3.646  -1.550   0.087  0.00  0.00    +0.150 C 
BRANCH  20  23
ATOM     21  C   UNL     1       5.534   0.075   0.595  0.00  0.00    +0.251 C 
ATOM     22  O   UNL     1       4.860   0.606   1.519  0.00  0.00    -0.270 OA
ATOM     23  N   UNL     1       5.010  -1.063  -0.109  0.00  0.00    -0.307 N 
ATOM     24  H   UNL     1       5.634  -1.616  -0.737  0.00  0.00    +0.149 HD
BRANCH  21  29
ATOM     25 CL   UNL     1      10.331   3.036   0.400  0.00  0.00    -0.076 Cl
ATOM     26  C   UNL     1       8.986   1.941   0.162  0.00  0.00    +0.079 A 
ATOM     27  C   UNL     1       8.881   0.993  -0.844  0.00  0.00    +0.028 A 
ATOM     28  C   UNL     1       7.689   0.261  -0.790  0.00  0.00    +0.022 A 
ATOM     29  C   UNL     1       6.858   0.634   0.266  0.00  0.00    +0.075 A 
ATOM     30  S   UNL     1       7.609   1.879   1.120  0.00  0.00    -0.072 S 
ENDBRANCH  21  29
ENDBRANCH  20  23
ENDBRANCH   1  20
TORSDOF 5
