REMARK  Name = 
REMARK  10 active torsions:
REMARK  status: ('A' for Active; 'I' for Inactive)
REMARK    1  A    between atoms: C_1  and  C_2
REMARK    2  A    between atoms: C_2  and  N_3
REMARK    3  A    between atoms: N_3  and  C_4
REMARK    4  A    between atoms: C_5  and  O_7
REMARK    5  A    between atoms: O_7  and  C_8
REMARK    6  A    between atoms: C_12  and  C_14
REMARK    7  A    between atoms: C_14  and  C_15
REMARK    8  A    between atoms: C_14  and  N_16
REMARK    9  A    between atoms: N_16  and  C_17
REMARK   10  A    between atoms: N_16  and  C_18
REMARK                            x       y       z     vdW  Elec       q    Type
REMARK                         _______ _______ _______ _____ _____    ______ ____
ROOT
ATOM      1  C   UNL     1       0.704  -0.124  -0.115  0.00  0.00    +0.134 A 
ATOM      2  C   UNL     1       0.643  -0.581  -1.440  0.00  0.00    +0.046 A 
ATOM      3  C   UNL     1      -0.574  -0.595  -2.119  0.00  0.00    +0.004 A 
ATOM      4  C   UNL     1      -1.742  -0.187  -1.473  0.00  0.00    +0.005 A 
ATOM      5  C   UNL     1      -1.718   0.232  -0.127  0.00  0.00    -0.027 A 
ATOM      6  C   UNL     1      -0.468   0.290   0.529  0.00  0.00    +0.051 A 
ENDROOT
BRANCH   5   7
ATOM      7  C   UNL     1      -3.017   0.691   0.539  0.00  0.00    +0.083 C 
ATOM      8  C   UNL     1      -2.951   0.704   2.088  0.00  0.00    +0.029 C 
BRANCH   7   9
ATOM      9  N   UNL     1      -4.164  -0.108   0.027  0.00  0.00    -0.302 NA
ATOM     10  C   UNL     1      -5.454   0.588   0.154  0.00  0.00    +0.105 C 
ATOM     11  C   UNL     1      -4.244  -1.471   0.582  0.00  0.00    +0.105 C 
ENDBRANCH   7   9
ENDBRANCH   5   7
BRANCH   1  12
ATOM     12  O   UNL     1       1.923  -0.029   0.571  0.00  0.00    -0.411 OA
BRANCH  12  15
ATOM     13  N   UNL     1       4.336  -0.488   0.680  0.00  0.00    -0.270 N 
ATOM     14  C   UNL     1       5.455  -1.408   0.457  0.00  0.00    +0.135 C 
ATOM     15  C   UNL     1       2.991  -0.918   0.402  0.00  0.00    +0.408 C 
ATOM     16  O   UNL     1       2.772  -2.103   0.026  0.00  0.00    -0.226 OA
BRANCH  13  18
ATOM     17  C   UNL     1       4.638   1.837  -0.055  0.00  0.00    +0.024 C 
ATOM     18  C   UNL     1       4.590   0.885   1.135  0.00  0.00    +0.107 C 
ENDBRANCH  13  18
ENDBRANCH  12  15
ENDBRANCH   1  12
TORSDOF 5
