REMARK  Name = 
REMARK  7 active torsions:
REMARK  status: ('A' for Active; 'I' for Inactive)
REMARK    1  A    between atoms: C_1  and  N_2
REMARK    2  A    between atoms: N_2  and  C_3
REMARK    3  A    between atoms: N_2  and  C_4
REMARK    4  A    between atoms: C_4  and  C_5
REMARK    5  A    between atoms: C_5  and  C_6
REMARK    6  A    between atoms: C_12  and  C_13
REMARK    7  A    between atoms: C_13  and  N_14
REMARK                            x       y       z     vdW  Elec       q    Type
REMARK                         _______ _______ _______ _____ _____    ______ ____
ROOT
ATOM      1  C   UNL     1       1.214  -1.206   0.697  0.00  0.00    -0.021 A 
ATOM      2  C   UNL     1       1.518  -2.477   1.176  0.00  0.00    +0.087 A 
ATOM      3  N   UNL     1       0.420  -3.267   1.145  0.00  0.00    -0.360 N 
ATOM      4  C   UNL     1      -0.569  -2.509   0.637  0.00  0.00    +0.047 A 
ATOM      5  C   UNL     1      -0.121  -1.248   0.345  0.00  0.00    +0.003 A 
ATOM      6  C   UNL     1      -0.956  -0.280  -0.212  0.00  0.00    +0.015 A 
ATOM      7  C   UNL     1      -2.297  -0.634  -0.475  0.00  0.00    -0.025 A 
ATOM      8  C   UNL     1      -2.760  -1.936  -0.153  0.00  0.00    +0.007 A 
ATOM      9  C   UNL     1      -1.888  -2.890   0.402  0.00  0.00    +0.026 A 
ATOM     10  H   UNL     1       0.360  -4.265   1.443  0.00  0.00    +0.165 HD
ENDROOT
BRANCH   1  11
ATOM     11  C   UNL     1       2.171  -0.067   0.509  0.00  0.00    +0.052 C 
BRANCH  11  12
ATOM     12  C   UNL     1       2.695  -0.044  -0.941  0.00  0.00    +0.088 C 
BRANCH  12  14
ATOM     13  C   UNL     1       2.963   2.393  -1.142  0.00  0.00    +0.104 C 
ATOM     14  N   UNL     1       3.614   1.077  -1.239  0.00  0.00    -0.308 NA
ATOM     15  C   UNL     1       4.850   1.034  -0.442  0.00  0.00    +0.104 C 
ENDBRANCH  12  14
ENDBRANCH  11  12
ENDBRANCH   1  11
BRANCH   7  16
ATOM     16  C   UNL     1      -3.247   0.389  -1.031  0.00  0.00    +0.180 C 
BRANCH  16  17
ATOM     17  N   UNL     1      -3.827   1.168   0.056  0.00  0.00    -0.248 N 
ATOM     18  C   UNL     1      -4.912   0.853   0.783  0.00  0.00    +0.219 A 
ATOM     19  N   UNL     1      -5.122   1.760   1.756  0.00  0.00    -0.223 NA
ATOM     20  C   UNL     1      -4.100   2.625   1.575  0.00  0.00    +0.245 A 
ATOM     21  N   UNL     1      -3.300   2.272   0.550  0.00  0.00    -0.158 NA
ENDBRANCH  16  17
ENDBRANCH   7  16
TORSDOF 5
