REMARK  Name = 
REMARK  10 active torsions:
REMARK  status: ('A' for Active; 'I' for Inactive)
REMARK    1  A    between atoms: C_3  and  N_31
REMARK    2  A    between atoms: C_4  and  O_5
REMARK    3  A    between atoms: O_5  and  C_6
REMARK    4  A    between atoms: C_6  and  C_7
REMARK    5  A    between atoms: C_9  and  C_10
REMARK    6  A    between atoms: C_19  and  O_20
REMARK    7  A    between atoms: C_21  and  N_25
REMARK    8  A    between atoms: C_23  and  C_24
REMARK    9  A    between atoms: N_31  and  C_32
REMARK   10  A    between atoms: C_32  and  C_33
REMARK                            x       y       z     vdW  Elec       q    Type
REMARK                         _______ _______ _______ _____ _____    ______ ____
ROOT
ATOM      1  C   UNL     1      -1.296  -0.415  -0.230  0.00  0.00    +0.000 C 
ATOM      2  C   UNL     1      -2.576  -0.853  -0.922  0.00  0.00    -0.007 C 
ATOM      3  C   UNL     1      -3.631  -0.674   0.196  0.00  0.00    -0.023 C 
ATOM      4  C   UNL     1      -3.060   0.452   1.147  0.00  0.00    +0.170 C 
ATOM      5  C   UNL     1      -1.678   0.857   0.542  0.00  0.00    +0.007 C 
ATOM      6  C   UNL     1      -1.827   2.115  -0.376  0.00  0.00    +0.015 C 
ATOM      7  C   UNL     1      -0.566   1.111   1.592  0.00  0.00    +0.011 C 
ATOM      8  C   UNL     1       0.836   1.210   0.936  0.00  0.00    +0.005 C 
ATOM      9  C   UNL     1       1.165   0.010  -0.011  0.00  0.00    -0.001 C 
ATOM     10  C   UNL     1       0.009  -0.254  -1.039  0.00  0.00    -0.004 C 
ATOM     11  C   UNL     1       0.305  -1.511  -1.878  0.00  0.00    +0.004 C 
ATOM     12  C   UNL     1       1.658  -1.397  -2.585  0.00  0.00    +0.004 C 
ATOM     13  C   UNL     1       2.791  -1.183  -1.566  0.00  0.00    -0.002 C 
ATOM     14  C   UNL     1       4.176  -1.233  -2.259  0.00  0.00    +0.037 C 
ATOM     15  C   UNL     1       5.335  -0.684  -1.385  0.00  0.00    +0.132 C 
ATOM     16  C   UNL     1       4.971  -0.717   0.124  0.00  0.00    +0.086 C 
ATOM     17  C   UNL     1       3.704   0.129   0.421  0.00  0.00    +0.028 C 
ATOM     18  C   UNL     1       2.588   0.099  -0.690  0.00  0.00    -0.025 C 
ATOM     19  C   UNL     1       2.694   1.391  -1.558  0.00  0.00    +0.012 C 
ENDROOT
BRANCH  16  20
ATOM     20  N   UNL     1       6.062  -0.292   1.044  0.00  0.00    -0.293 NA
ATOM     21  C   UNL     1       6.908  -1.410   1.509  0.00  0.00    +0.113 C 
ATOM     22  C   UNL     1       8.081  -0.892   2.362  0.00  0.00    +0.175 C 
ATOM     23  O   UNL     1       7.812   0.412   2.839  0.00  0.00    -0.377 OA
ATOM     24  C   UNL     1       7.785   1.327   1.754  0.00  0.00    +0.175 C 
ATOM     25  C   UNL     1       6.884   0.848   0.595  0.00  0.00    +0.113 C 
ENDBRANCH  16  20
BRANCH   3  26
ATOM     26  N   UNL     1      -5.059  -0.574  -0.295  0.00  0.00    +0.387 N 
ATOM     27  C   UNL     1      -6.019  -0.467   0.847  0.00  0.00    -0.074 C 
ATOM     28  C   UNL     1      -6.993   0.674   0.567  0.00  0.00    -0.020 C 
ATOM     29  C   UNL     1      -6.712   1.117  -0.849  0.00  0.00    -0.020 C 
ATOM     30  C   UNL     1      -5.303   0.635  -1.130  0.00  0.00    -0.074 C 
BRANCH  26  31
ATOM     31  C   UNL     1      -5.421  -1.772  -1.132  0.00  0.00    -0.047 C 
BRANCH  31  32
ATOM     32  C   UNL     1      -5.231  -3.110  -0.439  0.00  0.00    -0.053 C 
ATOM     33  C   UNL     1      -6.264  -3.866  -0.051  0.00  0.00    +0.002 C 
ENDBRANCH  31  32
ENDBRANCH  26  31
ENDBRANCH   3  26
BRANCH  15  34
ATOM     34  O   UNL     1       6.493  -1.440  -1.622  0.00  0.00    -0.390 OA
ATOM     35  H   UNL     1       6.820  -1.181  -2.523  0.00  0.00    +0.210 HD
ENDBRANCH  15  34
BRANCH   4  36
ATOM     36  O   UNL     1      -3.940   1.567   1.314  0.00  0.00    -0.463 OA
BRANCH  36  37
ATOM     37  C   UNL     1      -3.886   2.446   2.403  0.00  0.00    +0.304 C 
ATOM     38  C   UNL     1      -4.735   3.672   2.401  0.00  0.00    +0.136 C 
ATOM     39  O   UNL     1      -3.108   2.232   3.372  0.00  0.00    -0.251 OA
ENDBRANCH  36  37
ENDBRANCH   4  36
TORSDOF 7
