REMARK  Name = 
REMARK  7 active torsions:
REMARK  status: ('A' for Active; 'I' for Inactive)
REMARK    1  A    between atoms: C_2  and  O_4
REMARK    2  A    between atoms: O_4  and  C_5
REMARK    3  A    between atoms: C_6  and  O_7
REMARK    4  A    between atoms: O_7  and  C_8
REMARK    5  A    between atoms: C_8  and  C_9
REMARK    6  A    between atoms: C_13  and  C_16
REMARK    7  A    between atoms: N_18  and  C_19
REMARK                            x       y       z     vdW  Elec       q    Type
REMARK                         _______ _______ _______ _____ _____    ______ ____
ROOT
ATOM      1  C   UNL     1      -1.617  -2.636   0.229  0.00  0.00    +0.168 A 
ATOM      2  C   UNL     1      -1.504  -1.302  -0.189  0.00  0.00    +0.163 A 
ATOM      3  C   UNL     1      -0.254  -0.655  -0.125  0.00  0.00    +0.062 A 
ATOM      4  C   UNL     1       0.878  -1.325   0.370  0.00  0.00    +0.041 A 
ATOM      5  C   UNL     1       0.754  -2.662   0.775  0.00  0.00    +0.017 A 
ATOM      6  C   UNL     1      -0.479  -3.312   0.707  0.00  0.00    +0.050 A 
ENDROOT
BRANCH   4   7
ATOM      7  C   UNL     1       2.193  -0.644   0.444  0.00  0.00    +0.248 C 
ATOM      8  O   UNL     1       3.249  -1.334   0.490  0.00  0.00    -0.270 OA
ATOM      9  N   UNL     1       2.281   0.789   0.494  0.00  0.00    -0.279 N 
ATOM     10  H   UNL     1       1.457   1.330   0.840  0.00  0.00    +0.155 HD
BRANCH   9  11
ATOM     11  C   UNL     1       3.527   1.485   0.344  0.00  0.00    +0.074 A 
ATOM     12  C   UNL     1       3.984   2.336   1.366  0.00  0.00    +0.082 A 
ATOM     13 CL   UNL     1       3.080   2.541   2.860  0.00  0.00    -0.080 Cl
ATOM     14  C   UNL     1       5.197   3.012   1.205  0.00  0.00    +0.132 A 
ATOM     15  N   UNL     1       5.920   2.858   0.066  0.00  0.00    -0.260 NA
ATOM     16  C   UNL     1       5.495   2.057  -0.946  0.00  0.00    +0.132 A 
ATOM     17  C   UNL     1       4.290   1.359  -0.834  0.00  0.00    +0.082 A 
ATOM     18 CL   UNL     1       3.734   0.401  -2.201  0.00  0.00    -0.080 Cl
ENDBRANCH   9  11
ENDBRANCH   4   7
BRANCH   1  19
ATOM     19  O   UNL     1      -2.875  -3.255   0.149  0.00  0.00    -0.431 OA
BRANCH  19  21
ATOM     20  F   UNL     1      -4.469  -4.890   0.257  0.00  0.00    -0.166 F 
ATOM     21  C   UNL     1      -3.155  -4.589   0.562  0.00  0.00    +0.541 C 
ATOM     22  F   UNL     1      -2.973  -4.709   1.928  0.00  0.00    -0.166 F 
ENDBRANCH  19  21
ENDBRANCH   1  19
BRANCH   2  23
ATOM     23  O   UNL     1      -2.660  -0.660  -0.668  0.00  0.00    -0.488 OA
BRANCH  23  24
ATOM     24  C   UNL     1      -2.759   0.718  -1.028  0.00  0.00    +0.232 C 
BRANCH  24  25
ATOM     25  C   UNL     1      -2.695   1.603   0.225  0.00  0.00    +0.027 C 
ATOM     26  C   UNL     1      -3.425   2.933   0.120  0.00  0.00    +0.007 C 
ATOM     27  C   UNL     1      -4.019   1.802   0.946  0.00  0.00    +0.007 C 
ENDBRANCH  24  25
ENDBRANCH  23  24
ENDBRANCH   2  23
TORSDOF 7
