REMARK  Name = 
REMARK  12 active torsions:
REMARK  status: ('A' for Active; 'I' for Inactive)
REMARK    1  A    between atoms: C_8  and  O_9
REMARK    2  A    between atoms: C_14  and  C_15
REMARK    3  A    between atoms: C_14  and  O_16
REMARK    4  A    between atoms: C_17  and  O_18
REMARK    5  A    between atoms: C_19  and  O_20
REMARK    6  A    between atoms: C_23  and  C_24
REMARK    7  A    between atoms: N_26  and  C_27
REMARK    8  A    between atoms: C_27  and  N_28
REMARK    9  A    between atoms: C_33  and  O_34
REMARK   10  A    between atoms: C_35  and  N_36
REMARK   11  A    between atoms: N_36  and  C_37
REMARK   12  A    between atoms: N_36  and  C_38
REMARK                            x       y       z     vdW  Elec       q    Type
REMARK                         _______ _______ _______ _____ _____    ______ ____
ROOT
ATOM      1  C   UNL     1      -0.777   0.639  -1.379  0.00  0.00    +0.061 C 
ATOM      2  C   UNL     1      -2.268   0.919  -1.663  0.00  0.00    +0.020 C 
ATOM      3  C   UNL     1      -3.297  -0.061  -0.990  0.00  0.00    +0.062 C 
ATOM      4  C   UNL     1      -2.674  -1.250  -0.271  0.00  0.00    +0.047 C 
ATOM      5  C   UNL     1      -3.628  -2.157   0.407  0.00  0.00    +0.197 C 
ATOM      6  O   UNL     1      -3.309  -3.358   0.615  0.00  0.00    -0.287 OA
ATOM      7  C   UNL     1      -4.961  -1.653   0.826  0.00  0.00    +0.069 A 
ATOM      8  C   UNL     1      -5.932  -2.503   1.432  0.00  0.00    +0.128 A 
ATOM      9  C   UNL     1      -7.032  -1.947   2.086  0.00  0.00    +0.046 A 
ATOM     10  C   UNL     1      -7.224  -0.573   2.101  0.00  0.00    +0.004 A 
ATOM     11  C   UNL     1      -6.344   0.260   1.419  0.00  0.00    +0.007 A 
ATOM     12  C   UNL     1      -5.231  -0.263   0.722  0.00  0.00    -0.001 A 
ATOM     13  C   UNL     1      -4.323   0.697  -0.073  0.00  0.00    +0.096 C 
ATOM     14  C   UNL     1      -5.214   1.596  -0.984  0.00  0.00    +0.047 C 
ATOM     15  C   UNL     1      -1.359  -1.569  -0.403  0.00  0.00    +0.141 C 
ATOM     16  C   UNL     1      -0.506  -0.871  -1.435  0.00  0.00    +0.190 C 
ATOM     17  C   UNL     1       0.962  -1.098  -1.159  0.00  0.00    +0.211 C 
ATOM     18  O   UNL     1       1.593  -1.984  -1.800  0.00  0.00    -0.288 OA
ATOM     19  C   UNL     1       1.637  -0.333  -0.088  0.00  0.00    +0.121 C 
ATOM     20  C   UNL     1       1.011   0.707   0.500  0.00  0.00    +0.127 C 
ATOM     21  C   UNL     1      -0.294   1.302  -0.049  0.00  0.00    +0.129 C 
ENDROOT
BRANCH  19  22
ATOM     22  C   UNL     1       2.958  -0.796   0.399  0.00  0.00    +0.252 C 
ATOM     23  O   UNL     1       3.177  -2.033   0.517  0.00  0.00    -0.270 OA
ATOM     24  N   UNL     1       3.998   0.147   0.703  0.00  0.00    -0.298 N 
ATOM     25  H   UNL     1       3.836   1.165   0.535  0.00  0.00    +0.150 HD
BRANCH  24  26
ATOM     26  C   UNL     1       5.310  -0.273   1.191  0.00  0.00    +0.192 C 
BRANCH  26  27
ATOM     27  N   UNL     1       5.997  -1.083   0.168  0.00  0.00    -0.287 NA
ATOM     28  C   UNL     1       6.342  -0.298  -1.021  0.00  0.00    +0.086 C 
ATOM     29  C   UNL     1       7.528  -0.993  -1.665  0.00  0.00    +0.017 C 
ATOM     30  C   UNL     1       8.186  -1.779  -0.543  0.00  0.00    +0.017 C 
ATOM     31  C   UNL     1       7.269  -1.619   0.663  0.00  0.00    +0.086 C 
ENDBRANCH  26  27
ENDBRANCH  24  26
ENDBRANCH  19  22
BRANCH  21  32
ATOM     32  N   UNL     1      -0.216   2.775  -0.275  0.00  0.00    -0.299 NA
ATOM     33  C   UNL     1      -0.699   3.599   0.846  0.00  0.00    +0.105 C 
ATOM     34  C   UNL     1       1.079   3.264  -0.781  0.00  0.00    +0.105 C 
ENDBRANCH  21  32
BRANCH   8  35
ATOM     35  O   UNL     1      -5.866  -3.898   1.387  0.00  0.00    -0.506 OA
ATOM     36  H   UNL     1      -5.353  -4.412   0.684  0.00  0.00    +0.292 HD
ENDBRANCH   8  35
BRANCH  13  37
ATOM     37  O   UNL     1      -3.599   1.491   0.837  0.00  0.00    -0.384 OA
ATOM     38  H   UNL     1      -4.236   2.064   1.337  0.00  0.00    +0.211 HD
ENDBRANCH  13  37
BRANCH  15  39
ATOM     39  O   UNL     1      -0.753  -2.553   0.388  0.00  0.00    -0.507 OA
ATOM     40  H   UNL     1      -1.119  -2.850   1.284  0.00  0.00    +0.292 HD
ENDBRANCH  15  39
BRANCH  16  41
ATOM     41  O   UNL     1      -0.845  -1.388  -2.703  0.00  0.00    -0.373 OA
ATOM     42  H   UNL     1      -0.301  -0.916  -3.387  0.00  0.00    +0.211 HD
ENDBRANCH  16  41
BRANCH  20  43
ATOM     43  O   UNL     1       1.536   1.212   1.692  0.00  0.00    -0.509 OA
ATOM     44  H   UNL     1       1.025   1.861   2.273  0.00  0.00    +0.292 HD
ENDBRANCH  20  43
TORSDOF 9
