REMARK  Name = 
REMARK  7 active torsions:
REMARK  status: ('A' for Active; 'I' for Inactive)
REMARK    1  A    between atoms: C_1  and  C_2
REMARK    2  A    between atoms: C_2  and  C_3
REMARK    3  A    between atoms: C_3  and  N_4
REMARK    4  A    between atoms: C_9  and  C_10
REMARK    5  A    between atoms: N_12  and  C_13
REMARK    6  A    between atoms: C_14  and  C_15
REMARK    7  A    between atoms: C_19  and  C_20
REMARK                            x       y       z     vdW  Elec       q    Type
REMARK                         _______ _______ _______ _____ _____    ______ ____
ROOT
ATOM      1  C   UNL     1      -0.424  -0.406  -0.951  0.00  0.00    +0.234 C 
ATOM      2  O   UNL     1      -1.013  -0.099  -2.023  0.00  0.00    -0.274 OA
ATOM      3  N   UNL     1      -1.084  -0.236   0.311  0.00  0.00    -0.284 N 
ATOM      4  H   UNL     1      -0.667  -0.676   1.162  0.00  0.00    +0.155 HD
ENDROOT
BRANCH   3   5
ATOM      5  C   UNL     1      -2.401   0.325   0.412  0.00  0.00    +0.039 A 
ATOM      6  C   UNL     1      -2.627   1.692   0.121  0.00  0.00    -0.029 A 
ATOM      7  C   UNL     1      -1.503   2.603  -0.293  0.00  0.00    +0.045 C 
ATOM      8  C   UNL     1      -3.929   2.208   0.203  0.00  0.00    +0.005 A 
ATOM      9  C   UNL     1      -4.989   1.397   0.609  0.00  0.00    +0.001 A 
ATOM     10  C   UNL     1      -4.764   0.059   0.930  0.00  0.00    +0.005 A 
ATOM     11  C   UNL     1      -3.477  -0.490   0.830  0.00  0.00    -0.029 A 
ATOM     12  C   UNL     1      -3.255  -1.938   1.172  0.00  0.00    +0.045 C 
ENDBRANCH   3   5
BRANCH   1  18
ATOM     13  N   UNL     1       1.806  -0.441   0.065  0.00  0.00    -0.292 NA
ATOM     14  C   UNL     1       2.886  -1.351   0.536  0.00  0.00    +0.085 C 
ATOM     15  C   UNL     1       3.363  -2.315  -0.558  0.00  0.00    +0.015 C 
ATOM     16  C   UNL     1       2.215  -3.212  -1.048  0.00  0.00    +0.003 C 
ATOM     17  C   UNL     1       0.838  -2.543  -0.904  0.00  0.00    +0.028 C 
ATOM     18  C   UNL     1       0.953  -1.012  -1.015  0.00  0.00    +0.143 C 
BRANCH  13  19
ATOM     19  C   UNL     1       2.327   0.895  -0.303  0.00  0.00    +0.085 C 
BRANCH  19  21
ATOM     20  C   UNL     1       2.866   3.198   0.583  0.00  0.00    +0.005 C 
ATOM     21  C   UNL     1       2.469   1.771   0.948  0.00  0.00    +0.012 C 
ENDBRANCH  19  21
ENDBRANCH  13  19
ENDBRANCH   1  18
TORSDOF 4
