REMARK  Name = 
REMARK  9 active torsions:
REMARK  status: ('A' for Active; 'I' for Inactive)
REMARK    1  A    between atoms: C_1  and  C_2
REMARK    2  A    between atoms: C_2  and  C_3
REMARK    3  A    between atoms: C_3  and  N_4
REMARK    4  A    between atoms: N_4  and  C_5
REMARK    5  A    between atoms: N_4  and  C_8
REMARK    6  A    between atoms: C_5  and  C_6
REMARK    7  A    between atoms: C_6  and  C_7
REMARK    8  A    between atoms: C_8  and  C_9
REMARK    9  A    between atoms: C_9  and  C_10
REMARK                            x       y       z     vdW  Elec       q    Type
REMARK                         _______ _______ _______ _____ _____    ______ ____
ROOT
ATOM      1  C   UNL     1       1.661  -0.617  -0.072  0.00  0.00    -0.041 A 
ATOM      2  C   UNL     1       2.510   0.499  -0.163  0.00  0.00    -0.014 A 
ATOM      3  C   UNL     1       3.062   1.165  -1.388  0.00  0.00    +0.133 C 
ATOM      4  C   UNL     1       3.861   2.262  -0.753  0.00  0.00    +0.222 C 
ATOM      5  O   UNL     1       4.529   3.114  -1.395  0.00  0.00    -0.275 OA
ATOM      6  N   UNL     1       3.790   2.249   0.668  0.00  0.00    -0.285 N 
ATOM      7  C   UNL     1       2.951   1.151   0.974  0.00  0.00    +0.037 A 
ATOM      8  C   UNL     1       2.573   0.739   2.249  0.00  0.00    +0.023 A 
ATOM      9  C   UNL     1       1.724  -0.371   2.365  0.00  0.00    +0.002 A 
ATOM     10  C   UNL     1       1.269  -1.043   1.215  0.00  0.00    +0.004 A 
ATOM     11  H   UNL     1       4.251   2.906   1.335  0.00  0.00    +0.155 HD
ENDROOT
BRANCH   1  12
ATOM     12  C   UNL     1       1.112  -1.293  -1.304  0.00  0.00    +0.051 C 
BRANCH  12  13
ATOM     13  C   UNL     1      -0.155  -0.586  -1.796  0.00  0.00    +0.089 C 
BRANCH  13  14
ATOM     14  N   UNL     1      -1.248  -0.749  -0.807  0.00  0.00    -0.302 NA
BRANCH  14  15
ATOM     15  C   UNL     1      -2.088  -1.941  -1.093  0.00  0.00    +0.084 C 
BRANCH  15  17
ATOM     16  C   UNL     1      -2.954  -2.107   1.304  0.00  0.00    +0.005 C 
ATOM     17  C   UNL     1      -2.239  -2.817   0.158  0.00  0.00    +0.012 C 
ENDBRANCH  15  17
ENDBRANCH  14  15
BRANCH  14  18
ATOM     18  C   UNL     1      -2.057   0.485  -0.680  0.00  0.00    +0.084 C 
BRANCH  18  19
ATOM     19  C   UNL     1      -1.367   1.476   0.269  0.00  0.00    +0.012 C 
ATOM     20  C   UNL     1      -2.213   2.729   0.470  0.00  0.00    +0.005 C 
ENDBRANCH  18  19
ENDBRANCH  14  18
ENDBRANCH  13  14
ENDBRANCH  12  13
ENDBRANCH   1  12
TORSDOF 7
