REMARK  Name = 
REMARK  8 active torsions:
REMARK  status: ('A' for Active; 'I' for Inactive)
REMARK    1  A    between atoms: C_1  and  N_2
REMARK    2  A    between atoms: N_2  and  C_3
REMARK    3  A    between atoms: N_2  and  C_20
REMARK    4  A    between atoms: C_3  and  C_4
REMARK    5  A    between atoms: C_4  and  O_5
REMARK    6  A    between atoms: O_5  and  C_6
REMARK    7  A    between atoms: C_9  and  C_10
REMARK    8  A    between atoms: C_10  and  C_11
REMARK                            x       y       z     vdW  Elec       q    Type
REMARK                         _______ _______ _______ _____ _____    ______ ____
ROOT
ATOM      1  C   UNL     1       0.778  -1.209  -0.149  0.00  0.00    +0.121 A 
ATOM      2  C   UNL     1       0.926  -0.288  -1.203  0.00  0.00    +0.046 A 
ATOM      3  C   UNL     1       2.201   0.091  -1.633  0.00  0.00    +0.007 A 
ATOM      4  C   UNL     1       3.346  -0.444  -1.021  0.00  0.00    -0.046 A 
ATOM      5  C   UNL     1       3.196  -1.358   0.033  0.00  0.00    +0.007 A 
ATOM      6  C   UNL     1       1.921  -1.737   0.463  0.00  0.00    +0.046 A 
ENDROOT
BRANCH   1   7
ATOM      7  O   UNL     1      -0.478  -1.621   0.320  0.00  0.00    -0.490 OA
BRANCH   7   8
ATOM      8  C   UNL     1      -1.722  -1.164  -0.204  0.00  0.00    +0.248 C 
BRANCH   8   9
ATOM      9  C   UNL     1      -2.867  -1.829   0.554  0.00  0.00    +0.147 C 
BRANCH   9  11
ATOM     10  C   UNL     1      -4.848  -2.211  -0.975  0.00  0.00    +0.131 C 
ATOM     11  N   UNL     1      -4.163  -1.380   0.023  0.00  0.00    -0.315 N 
BRANCH  11  12
ATOM     12  C   UNL     1      -4.728  -0.118   0.461  0.00  0.00    +0.121 A 
ATOM     13  C   UNL     1      -5.981   0.334   0.000  0.00  0.00    +0.043 A 
ATOM     14  C   UNL     1      -6.483   1.557   0.450  0.00  0.00    +0.005 A 
ATOM     15  C   UNL     1      -5.745   2.324   1.351  0.00  0.00    +0.020 A 
ATOM     16  C   UNL     1      -4.509   1.853   1.792  0.00  0.00    +0.113 A 
ATOM     17  N   UNL     1      -4.036   0.660   1.344  0.00  0.00    -0.240 NA
ENDBRANCH  11  12
ENDBRANCH   9  11
ENDBRANCH   8   9
ENDBRANCH   7   8
ENDBRANCH   1   7
BRANCH   4  18
ATOM     18  C   UNL     1       4.718  -0.012  -1.472  0.00  0.00    +0.059 C 
BRANCH  18  19
ATOM     19  C   UNL     1       5.092   1.365  -0.902  0.00  0.00    +0.146 C 
ATOM     20  S   UNL     1       5.286   1.286   0.931  0.00  0.00    -0.054 S 
ATOM     21  C   UNL     1       7.008   1.728   0.777  0.00  0.00    +0.279 C 
ATOM     22  O   UNL     1       7.783   1.782   1.767  0.00  0.00    -0.263 OA
ATOM     23  N   UNL     1       7.451   2.008  -0.533  0.00  0.00    -0.246 N 
ATOM     24  C   UNL     1       6.401   1.833  -1.464  0.00  0.00    +0.234 C 
ATOM     25  O   UNL     1       6.563   2.072  -2.691  0.00  0.00    -0.274 OA
ATOM     26  H   UNL     1       8.421   2.305  -0.782  0.00  0.00    +0.158 HD
ENDBRANCH  18  19
ENDBRANCH   4  18
TORSDOF 7
