REMARK  Name = 
REMARK  5 active torsions:
REMARK  status: ('A' for Active; 'I' for Inactive)
REMARK    1  A    between atoms: C_1  and  C_2
REMARK    2  A    between atoms: C_2  and  N_3
REMARK    3  A    between atoms: C_5  and  C_6
REMARK    4  A    between atoms: C_6  and  O_7
REMARK    5  A    between atoms: C_14  and  C_17
REMARK                            x       y       z     vdW  Elec       q    Type
REMARK                         _______ _______ _______ _____ _____    ______ ____
ROOT
ATOM      1  N   UNL     1       1.807  -0.300  -0.592  0.00  0.00    -0.346 N 
ATOM      2  C   UNL     1       3.010   0.351  -0.550  0.00  0.00    +0.105 A 
ATOM      3  C   UNL     1       3.117   1.684  -0.131  0.00  0.00    +0.122 A 
ATOM      4  C   UNL     1       1.949   2.358   0.267  0.00  0.00    +0.203 A 
ATOM      5  O   UNL     1       2.008   3.563   0.641  0.00  0.00    -0.286 OA
ATOM      6  C   UNL     1       0.713   1.688   0.254  0.00  0.00    +0.046 A 
ATOM      7  C   UNL     1       0.654   0.335  -0.173  0.00  0.00    +0.053 A 
ATOM      8  C   UNL     1      -0.601  -0.323  -0.144  0.00  0.00    +0.035 A 
ATOM      9  C   UNL     1      -1.768   0.341   0.271  0.00  0.00    -0.016 A 
ATOM     10  C   UNL     1      -1.685   1.679   0.671  0.00  0.00    +0.009 A 
ATOM     11  C   UNL     1      -0.462   2.345   0.666  0.00  0.00    +0.014 A 
ENDROOT
BRANCH   9  12
ATOM     12  C   UNL     1      -3.074  -0.368   0.288  0.00  0.00    -0.015 A 
ATOM     13  C   UNL     1      -3.436  -1.228  -0.763  0.00  0.00    +0.028 A 
ATOM     14  C   UNL     1      -4.669  -1.884  -0.726  0.00  0.00    +0.111 A 
ATOM     15  N   UNL     1      -5.514  -1.692   0.320  0.00  0.00    -0.263 NA
ATOM     16  C   UNL     1      -5.194  -0.866   1.351  0.00  0.00    +0.111 A 
ATOM     17  C   UNL     1      -3.971  -0.190   1.355  0.00  0.00    +0.028 A 
ENDBRANCH   9  12
BRANCH   1  19
ATOM     18  C   UNL     1       1.901  -2.671   0.106  0.00  0.00    +0.027 C 
ATOM     19  C   UNL     1       1.822  -1.699  -1.069  0.00  0.00    +0.118 C 
ENDBRANCH   1  19
BRANCH   3  20
ATOM     20  C   UNL     1       4.454   2.339  -0.121  0.00  0.00    +0.342 C 
ATOM     21  O   UNL     1       4.588   3.534   0.258  0.00  0.00    -0.245 OA
BRANCH  20  22
ATOM     22  O   UNL     1       5.582   1.634  -0.534  0.00  0.00    -0.477 OA
ATOM     23  H   UNL     1       6.497   2.068  -0.532  0.00  0.00    +0.295 HD
ENDBRANCH  20  22
ENDBRANCH   3  20
TORSDOF 4
