REMARK  Name = 
REMARK  16 active torsions:
REMARK  status: ('A' for Active; 'I' for Inactive)
REMARK    1  A    between atoms: C_1  and  C_2
REMARK    2  A    between atoms: C_2  and  C_3
REMARK    3  A    between atoms: C_2  and  C_4
REMARK    4  A    between atoms: C_8  and  C_9
REMARK    5  A    between atoms: C_16  and  C_17
REMARK    6  A    between atoms: C_18  and  C_19
REMARK    7  A    between atoms: C_19  and  O_20
REMARK    8  A    between atoms: C_19  and  C_21
REMARK    9  A    between atoms: C_21  and  C_22
REMARK   10  A    between atoms: C_22  and  O_23
REMARK   11  A    between atoms: C_22  and  C_24
REMARK   12  A    between atoms: C_24  and  C_25
REMARK   13  A    between atoms: C_25  and  O_27
REMARK   14  A    between atoms: N_28  and  C_29
REMARK   15  A    between atoms: N_28  and  S_30
REMARK   16  A    between atoms: S_30  and  C_31
REMARK                            x       y       z     vdW  Elec       q    Type
REMARK                         _______ _______ _______ _____ _____    ______ ____
ROOT
ATOM      1  C   UNL     1      -1.398   1.995   0.570  0.00  0.00    +0.057 A 
ATOM      2  N   UNL     1      -2.750   2.095   0.454  0.00  0.00    -0.217 NA
ATOM      3  C   UNL     1      -3.477   1.296  -0.366  0.00  0.00    +0.238 A 
ATOM      4  N   UNL     1      -2.840   0.368  -1.119  0.00  0.00    -0.212 NA
ATOM      5  C   UNL     1      -1.492   0.212  -1.079  0.00  0.00    +0.083 A 
ATOM      6  C   UNL     1      -0.718   1.018  -0.206  0.00  0.00    +0.022 A 
ATOM      7  N   UNL     1      -4.910   1.432  -0.448  0.00  0.00    -0.178 N 
ATOM      8  C   UNL     1      -5.667   0.546  -1.333  0.00  0.00    +0.160 C 
ENDROOT
BRANCH   5   9
ATOM      9  C   UNL     1      -0.893  -0.798  -1.982  0.00  0.00    +0.001 A 
ATOM     10  C   UNL     1      -1.393  -2.110  -1.989  0.00  0.00    +0.013 A 
ATOM     11  C   UNL     1      -0.829  -3.075  -2.829  0.00  0.00    +0.039 A 
ATOM     12  C   UNL     1       0.230  -2.733  -3.676  0.00  0.00    +0.123 A 
ATOM     13  F   UNL     1       0.779  -3.671  -4.487  0.00  0.00    -0.205 F 
ATOM     14  C   UNL     1       0.718  -1.424  -3.692  0.00  0.00    +0.039 A 
ATOM     15  C   UNL     1       0.154  -0.457  -2.855  0.00  0.00    +0.013 A 
ENDBRANCH   5   9
BRANCH   7  16
ATOM     16  S   UNL     1      -5.798   2.554   0.553  0.00  0.00    +0.045 S 
ATOM     17  C   UNL     1      -6.736   1.642   1.759  0.00  0.00    +0.219 C 
ATOM     18  O   UNL     1      -6.729   3.360  -0.308  0.00  0.00    -0.155 OA
ATOM     19  O   UNL     1      -4.875   3.499   1.276  0.00  0.00    -0.155 OA
ENDBRANCH   7  16
BRANCH   1  21
ATOM     20  C   UNL     1      -0.023   4.107   0.784  0.00  0.00    +0.014 C 
ATOM     21  C   UNL     1      -0.725   2.967   1.530  0.00  0.00    +0.032 C 
ATOM     22  C   UNL     1       0.195   2.293   2.559  0.00  0.00    +0.014 C 
ENDBRANCH   1  21
BRANCH   6  23
ATOM     23  C   UNL     1       0.742   0.809  -0.086  0.00  0.00    +0.010 C 
ATOM     24  C   UNL     1       1.254  -0.381   0.243  0.00  0.00    +0.005 C 
BRANCH  24  25
ATOM     25  C   UNL     1       2.744  -0.590   0.328  0.00  0.00    +0.140 C 
BRANCH  25  26
ATOM     26  O   UNL     1       3.287   0.198   1.360  0.00  0.00    -0.388 OA
ATOM     27  H   UNL     1       2.878  -0.106   2.216  0.00  0.00    +0.210 HD
ENDBRANCH  25  26
BRANCH  25  28
ATOM     28  C   UNL     1       3.077  -2.084   0.531  0.00  0.00    +0.067 C 
BRANCH  28  29
ATOM     29  C   UNL     1       4.587  -2.376   0.673  0.00  0.00    +0.128 C 
BRANCH  29  30
ATOM     30  O   UNL     1       4.756  -3.717   1.052  0.00  0.00    -0.391 OA
ATOM     31  H   UNL     1       4.564  -3.769   2.025  0.00  0.00    +0.210 HD
ENDBRANCH  29  30
BRANCH  29  32
ATOM     32  C   UNL     1       5.346  -2.129  -0.643  0.00  0.00    +0.151 C 
BRANCH  32  33
ATOM     33  C   UNL     1       6.796  -2.481  -0.504  0.00  0.00    +0.307 C 
ATOM     34  O   UNL     1       7.577  -1.708   0.114  0.00  0.00    -0.251 OA
BRANCH  33  35
ATOM     35  O   UNL     1       7.274  -3.675  -1.036  0.00  0.00    -0.481 OA
ATOM     36  H   UNL     1       8.249  -3.933  -0.940  0.00  0.00    +0.295 HD
ENDBRANCH  33  35
ENDBRANCH  32  33
ENDBRANCH  29  32
ENDBRANCH  28  29
ENDBRANCH  25  28
ENDBRANCH  24  25
ENDBRANCH   6  23
TORSDOF 12
