REMARK  Name = 
REMARK  8 active torsions:
REMARK  status: ('A' for Active; 'I' for Inactive)
REMARK    1  A    between atoms: C_1  and  C_2
REMARK    2  A    between atoms: C_2  and  C_3
REMARK    3  A    between atoms: C_3  and  N_4
REMARK    4  A    between atoms: N_4  and  C_5
REMARK    5  A    between atoms: N_4  and  C_12
REMARK    6  A    between atoms: C_5  and  C_6
REMARK    7  A    between atoms: C_6  and  C_7
REMARK    8  A    between atoms: C_21  and  O_22
REMARK                            x       y       z     vdW  Elec       q    Type
REMARK                         _______ _______ _______ _____ _____    ______ ____
ROOT
ATOM      1  C   UNL     1      -0.626   0.648  -0.439  0.00  0.00    +0.061 C 
ATOM      2  C   UNL     1      -1.060   0.117  -1.810  0.00  0.00    +0.024 C 
ATOM      3  C   UNL     1      -2.545  -0.264  -1.798  0.00  0.00    +0.040 C 
ATOM      4  C   UNL     1      -2.963  -1.053  -0.570  0.00  0.00    -0.003 A 
ATOM      5  C   UNL     1      -2.134  -1.104   0.583  0.00  0.00    -0.039 A 
ATOM      6  C   UNL     1      -0.762  -0.473   0.608  0.00  0.00    +0.054 C 
ATOM      7  C   UNL     1      -2.549  -1.836   1.705  0.00  0.00    +0.004 A 
ATOM      8  C   UNL     1      -3.786  -2.477   1.716  0.00  0.00    +0.004 A 
ATOM      9  C   UNL     1      -4.624  -2.395   0.607  0.00  0.00    +0.046 A 
ATOM     10  C   UNL     1      -4.234  -1.680  -0.530  0.00  0.00    +0.120 A 
ENDROOT
BRANCH  10  11
ATOM     11  O   UNL     1      -5.138  -1.605  -1.593  0.00  0.00    -0.506 OA
ATOM     12  H   UNL     1      -4.971  -1.062  -2.430  0.00  0.00    +0.292 HD
ENDBRANCH  10  11
BRANCH   1  13
ATOM     13  N   UNL     1       0.733   1.255  -0.519  0.00  0.00    -0.299 NA
BRANCH  13  14
ATOM     14  C   UNL     1       0.935   2.421   0.368  0.00  0.00    +0.084 C 
BRANCH  14  16
ATOM     15  C   UNL     1       0.607   4.914   0.601  0.00  0.00    +0.005 C 
ATOM     16  C   UNL     1       0.352   3.688  -0.271  0.00  0.00    +0.012 C 
ENDBRANCH  14  16
ENDBRANCH  13  14
BRANCH  13  17
ATOM     17  C   UNL     1       1.887   0.324  -0.611  0.00  0.00    +0.090 C 
BRANCH  17  18
ATOM     18  C   UNL     1       2.520  -0.046   0.750  0.00  0.00    +0.058 C 
BRANCH  18  19
ATOM     19  C   UNL     1       3.311  -1.311   0.636  0.00  0.00    -0.009 A 
ATOM     20  C   UNL     1       4.618  -1.416   0.178  0.00  0.00    +0.011 A 
ATOM     21  C   UNL     1       5.071  -2.739   0.107  0.00  0.00    +0.008 A 
ATOM     22  C   UNL     1       4.120  -3.675   0.494  0.00  0.00    +0.045 A 
ATOM     23  S   UNL     1       2.714  -2.857   0.921  0.00  0.00    -0.102 S 
ENDBRANCH  18  19
ENDBRANCH  17  18
ENDBRANCH  13  17
ENDBRANCH   1  13
TORSDOF 7
