REMARK  Name = 
REMARK  11 active torsions:
REMARK  status: ('A' for Active; 'I' for Inactive)
REMARK    1  A    between atoms: C_1  and  C_2
REMARK    2  A    between atoms: C_2  and  O_4
REMARK    3  A    between atoms: O_4  and  C_5
REMARK    4  A    between atoms: C_5  and  C_6
REMARK    5  A    between atoms: N_8  and  C_9
REMARK    6  A    between atoms: C_9  and  C_10
REMARK    7  A    between atoms: C_10  and  C_11
REMARK    8  A    between atoms: C_11  and  O_12
REMARK    9  A    between atoms: O_12  and  C_13
REMARK   10  A    between atoms: C_17  and  C_18
REMARK   11  A    between atoms: C_18  and  N_19
REMARK                            x       y       z     vdW  Elec       q    Type
REMARK                         _______ _______ _______ _____ _____    ______ ____
ROOT
ATOM      1  O   UNL     1       0.858   0.646  -1.427  0.00  0.00    -0.492 OA
ENDROOT
BRANCH   1   2
ATOM      2  C   UNL     1       0.043  -0.462  -1.142  0.00  0.00    +0.121 A 
ATOM      3  C   UNL     1      -0.159  -1.402  -2.154  0.00  0.00    +0.045 A 
ATOM      4  C   UNL     1      -1.001  -2.497  -1.943  0.00  0.00    +0.004 A 
ATOM      5  C   UNL     1      -1.665  -2.651  -0.723  0.00  0.00    +0.005 A 
ATOM      6  C   UNL     1      -1.479  -1.712   0.302  0.00  0.00    -0.030 A 
ATOM      7  C   UNL     1      -0.589  -0.638   0.103  0.00  0.00    +0.050 A 
BRANCH   6   8
ATOM      8  C   UNL     1      -2.288  -1.819   1.586  0.00  0.00    +0.119 C 
BRANCH   8   9
ATOM      9  N   UNL     1      -3.586  -1.104   1.530  0.00  0.00    -0.298 NA
ATOM     10  C   UNL     1      -4.496  -1.644   0.501  0.00  0.00    +0.085 C 
ATOM     11  C   UNL     1      -5.888  -1.022   0.652  0.00  0.00    +0.015 C 
ATOM     12  C   UNL     1      -5.806   0.505   0.562  0.00  0.00    +0.002 C 
ATOM     13  C   UNL     1      -4.784   1.052   1.560  0.00  0.00    +0.015 C 
ATOM     14  C   UNL     1      -3.426   0.359   1.390  0.00  0.00    +0.085 C 
ENDBRANCH   8   9
ENDBRANCH   6   8
ENDBRANCH   1   2
BRANCH   1  15
ATOM     15  C   UNL     1       1.249   1.654  -0.497  0.00  0.00    +0.230 C 
BRANCH  15  16
ATOM     16  C   UNL     1       1.849   2.849  -1.238  0.00  0.00    +0.060 C 
BRANCH  16  17
ATOM     17  C   UNL     1       2.961   2.470  -2.226  0.00  0.00    +0.107 C 
BRANCH  17  20
ATOM     18  C   UNL     1       5.034   2.414  -0.756  0.00  0.00    +0.251 C 
ATOM     19  O   UNL     1       4.887   3.624  -0.438  0.00  0.00    -0.272 OA
ATOM     20  N   UNL     1       4.053   1.751  -1.573  0.00  0.00    -0.312 N 
ATOM     21  H   UNL     1       4.233   0.768  -1.868  0.00  0.00    +0.149 HD
BRANCH  18  22
ATOM     22  C   UNL     1       6.266   1.679  -0.309  0.00  0.00    +0.327 C 
BRANCH  22  23
ATOM     23  O   UNL     1       5.960   0.332   0.039  0.00  0.00    -0.455 OA
BRANCH  23  25
ATOM     24  C   UNL     1       4.984  -1.467   1.473  0.00  0.00    +0.136 C 
ATOM     25  C   UNL     1       5.242  -0.023   1.189  0.00  0.00    +0.304 C 
ATOM     26  O   UNL     1       4.812   0.858   1.980  0.00  0.00    -0.251 OA
ENDBRANCH  23  25
ENDBRANCH  22  23
ENDBRANCH  18  22
ENDBRANCH  17  20
ENDBRANCH  16  17
ENDBRANCH  15  16
ENDBRANCH   1  15
TORSDOF 10
