REMARK  Name = 
REMARK  32 active torsions:
REMARK  status: ('A' for Active; 'I' for Inactive)
REMARK    1  A    between atoms: C_1  and  C_2
REMARK    2  A    between atoms: C_2  and  C_3
REMARK    3  A    between atoms: C_7  and  C_8
REMARK    4  A    between atoms: C_9  and  O_10
REMARK    5  A    between atoms: O_10  and  C_11
REMARK    6  A    between atoms: C_13  and  C_14
REMARK    7  A    between atoms: C_13  and  O_15
REMARK    8  A    between atoms: O_15  and  C_16
REMARK    9  A    between atoms: C_17  and  O_18
REMARK   10  A    between atoms: C_19  and  C_20
REMARK   11  A    between atoms: C_22  and  C_23
REMARK   12  A    between atoms: C_24  and  O_25
REMARK   13  A    between atoms: O_25  and  C_26
REMARK   14  A    between atoms: C_28  and  C_29
REMARK   15  A    between atoms: C_31  and  N_34
REMARK   16  A    between atoms: C_32  and  O_33
REMARK   17  A    between atoms: N_34  and  C_35
REMARK   18  A    between atoms: N_34  and  C_36
REMARK   19  A    between atoms: C_37  and  C_38
REMARK   20  A    between atoms: C_37  and  O_39
REMARK   21  A    between atoms: C_41  and  C_42
REMARK   22  A    between atoms: N_44  and  O_45
REMARK   23  A    between atoms: O_45  and  C_46
REMARK   24  A    between atoms: C_46  and  O_47
REMARK   25  A    between atoms: O_47  and  C_48
REMARK   26  A    between atoms: C_48  and  C_49
REMARK   27  A    between atoms: C_49  and  O_50
REMARK   28  A    between atoms: O_50  and  C_51
REMARK   29  A    between atoms: C_52  and  C_53
REMARK   30  A    between atoms: C_54  and  O_55
REMARK   31  A    between atoms: C_56  and  C_57
REMARK   32  A    between atoms: C_56  and  O_58
REMARK                            x       y       z     vdW  Elec       q    Type
REMARK                         _______ _______ _______ _____ _____    ______ ____
ROOT
ATOM      1  C   UNL     1       2.590  -3.858   0.232  0.00  0.00    +0.210 C 
ATOM      2  O   UNL     1       1.381  -3.414   0.867  0.00  0.00    -0.458 OA
ATOM      3  C   UNL     1       0.391  -2.640   0.256  0.00  0.00    +0.313 C 
ATOM      4  O   UNL     1       0.533  -2.238  -0.932  0.00  0.00    -0.250 OA
ATOM      5  C   UNL     1      -0.919  -2.438   0.984  0.00  0.00    +0.124 C 
ATOM      6  C   UNL     1      -1.781  -3.686   0.749  0.00  0.00    +0.022 C 
ATOM      7  C   UNL     1      -1.608  -1.077   0.606  0.00  0.00    +0.140 C 
ATOM      8  C   UNL     1      -0.882   0.112   1.363  0.00  0.00    +0.047 C 
ATOM      9  C   UNL     1      -1.662   0.516   2.639  0.00  0.00    +0.013 C 
ATOM     10  C   UNL     1      -0.555   1.343   0.431  0.00  0.00    +0.158 C 
ATOM     11  C   UNL     1       0.823   2.096   0.750  0.00  0.00    +0.090 C 
ATOM     12  C   UNL     1       0.696   2.986   2.005  0.00  0.00    +0.044 C 
ATOM     13  C   UNL     1       2.031   1.098   0.952  0.00  0.00    +0.046 C 
ATOM     14  C   UNL     1       3.409   1.472   0.328  0.00  0.00    +0.037 C 
ATOM     15  C   UNL     1       3.902   2.883   0.718  0.00  0.00    +0.014 C 
ATOM     16  C   UNL     1       4.481   0.446   0.704  0.00  0.00    +0.066 C 
ATOM     17  N   UNL     1       5.154   0.656   1.802  0.00  0.00    -0.091 NA
ATOM     18  C   UNL     1       4.936  -0.647  -0.279  0.00  0.00    +0.065 C 
ATOM     19  C   UNL     1       5.446   0.012  -1.579  0.00  0.00    +0.016 C 
ATOM     20  C   UNL     1       3.850  -1.748  -0.546  0.00  0.00    +0.158 C 
ATOM     21  C   UNL     1       3.787  -2.874   0.549  0.00  0.00    +0.126 C 
ATOM     22  C   UNL     1       3.597  -2.288   1.974  0.00  0.00    +0.048 C 
ENDROOT
BRANCH   1  24
ATOM     23  C   UNL     1       1.713  -6.248   0.338  0.00  0.00    +0.007 C 
ATOM     24  C   UNL     1       2.862  -5.306   0.698  0.00  0.00    +0.044 C 
ENDBRANCH   1  24
BRANCH  11  25
ATOM     25  O   UNL     1       1.113   2.957  -0.323  0.00  0.00    -0.386 OA
ATOM     26  H   UNL     1       1.240   2.403  -1.138  0.00  0.00    +0.210 HD
ENDBRANCH  11  25
BRANCH  20  27
ATOM     27  O   UNL     1       4.121  -2.374  -1.780  0.00  0.00    -0.388 OA
ATOM     28  H   UNL     1       3.552  -1.942  -2.471  0.00  0.00    +0.210 HD
ENDBRANCH  20  27
BRANCH  21  29
ATOM     29  O   UNL     1       5.019  -3.567   0.484  0.00  0.00    -0.383 OA
ATOM     30  H   UNL     1       5.154  -4.072   1.329  0.00  0.00    +0.210 HD
ENDBRANCH  21  29
BRANCH   7  31
ATOM     31  O   UNL     1      -2.990  -1.094   0.967  0.00  0.00    -0.347 OA
BRANCH  31  32
ATOM     32  C   UNL     1      -3.846  -1.387  -0.128  0.00  0.00    +0.254 C 
ATOM     33  C   UNL     1      -5.232  -1.710   0.433  0.00  0.00    +0.098 C 
ATOM     34  C   UNL     1      -6.244  -2.091  -0.678  0.00  0.00    +0.099 C 
ATOM     35  C   UNL     1      -5.980  -3.528  -1.209  0.00  0.00    +0.044 C 
ATOM     36  C   UNL     1      -6.124  -1.059  -1.853  0.00  0.00    +0.175 C 
ATOM     37  C   UNL     1      -4.680  -0.555  -2.153  0.00  0.00    +0.149 C 
ATOM     38  C   UNL     1      -3.885  -1.376  -3.186  0.00  0.00    +0.041 C 
ATOM     39  O   UNL     1      -3.925  -0.268  -0.984  0.00  0.00    -0.346 OA
BRANCH  34  40
ATOM     40  O   UNL     1      -7.590  -1.984  -0.200  0.00  0.00    -0.374 OA
ATOM     41  C   UNL     1      -7.924  -2.871   0.855  0.00  0.00    +0.194 C 
ENDBRANCH  34  40
BRANCH  36  42
ATOM     42  O   UNL     1      -6.894   0.077  -1.536  0.00  0.00    -0.386 OA
ATOM     43  H   UNL     1      -7.790  -0.041  -1.949  0.00  0.00    +0.210 HD
ENDBRANCH  36  42
ENDBRANCH  31  32
ENDBRANCH   7  31
BRANCH  10  44
ATOM     44  O   UNL     1      -1.676   2.227   0.465  0.00  0.00    -0.342 OA
BRANCH  44  45
ATOM     45  C   UNL     1      -1.777   3.110  -0.647  0.00  0.00    +0.281 C 
ATOM     46  O   UNL     1      -1.687   4.456  -0.183  0.00  0.00    -0.346 OA
ATOM     47  C   UNL     1      -2.917   4.999   0.288  0.00  0.00    +0.120 C 
ATOM     48  C   UNL     1      -3.399   4.332   1.588  0.00  0.00    +0.038 C 
ATOM     49  C   UNL     1      -4.018   5.042  -0.805  0.00  0.00    +0.053 C 
ATOM     50  C   UNL     1      -3.663   4.129  -1.997  0.00  0.00    +0.092 C 
ATOM     51  C   UNL     1      -3.062   2.814  -1.464  0.00  0.00    +0.187 C 
BRANCH  50  52
ATOM     52  N   UNL     1      -4.782   3.880  -2.946  0.00  0.00    -0.303 NA
ATOM     53  C   UNL     1      -5.052   5.051  -3.794  0.00  0.00    +0.105 C 
ATOM     54  C   UNL     1      -6.034   3.391  -2.337  0.00  0.00    +0.105 C 
ENDBRANCH  50  52
BRANCH  51  55
ATOM     55  O   UNL     1      -2.787   1.923  -2.519  0.00  0.00    -0.385 OA
ATOM     56  H   UNL     1      -2.185   2.383  -3.161  0.00  0.00    +0.210 HD
ENDBRANCH  51  55
ENDBRANCH  44  45
ENDBRANCH  10  44
BRANCH  17  57
ATOM     57  O   UNL     1       6.234  -0.115   2.177  0.00  0.00    -0.365 OA
BRANCH  57  58
ATOM     58  C   UNL     1       7.143   0.334   3.176  0.00  0.00    +0.426 C 
BRANCH  58  59
ATOM     59  O   UNL     1       7.920   1.438   2.739  0.00  0.00    -0.340 OA
BRANCH  59  60
ATOM     60  C   UNL     1       8.474   1.235   1.447  0.00  0.00    +0.192 C 
BRANCH  60  61
ATOM     61  C   UNL     1       9.524   0.111   1.410  0.00  0.00    +0.187 C 
BRANCH  61  62
ATOM     62  O   UNL     1      10.249   0.150   0.195  0.00  0.00    -0.381 OA
ATOM     63  C   UNL     1       9.618  -0.654  -0.781  0.00  0.00    +0.194 C 
ENDBRANCH  61  62
ENDBRANCH  60  61
ENDBRANCH  59  60
ENDBRANCH  58  59
ENDBRANCH  57  58
ENDBRANCH  17  57
TORSDOF 18
