REMARK  Name = 
REMARK  3 active torsions:
REMARK  status: ('A' for Active; 'I' for Inactive)
REMARK    1  A    between atoms: C_2  and  C_4
REMARK    2  A    between atoms: N_6  and  C_7
REMARK    3  A    between atoms: C_7  and  C_8
REMARK                            x       y       z     vdW  Elec       q    Type
REMARK                         _______ _______ _______ _____ _____    ______ ____
ROOT
ATOM      1  C   UNL     1       2.589  -0.109  -0.188  0.00  0.00    +0.167 A 
ATOM      2  C   UNL     1       1.502  -0.089  -1.035  0.00  0.00    +0.143 A 
ATOM      3  N   UNL     1       0.681  -1.062  -0.605  0.00  0.00    -0.246 N 
ATOM      4  N   UNL     1       1.226  -1.636   0.457  0.00  0.00    -0.065 NA
ATOM      5  N   UNL     1       2.397  -1.077   0.731  0.00  0.00    -0.125 NA
ENDROOT
BRANCH   1   7
ATOM      6  N   UNL     1       4.820   0.640   0.709  0.00  0.00    -0.324 N 
ATOM      7  C   UNL     1       3.766   0.771  -0.245  0.00  0.00    +0.263 C 
ATOM      8  O   UNL     1       3.847   1.652  -1.143  0.00  0.00    -0.269 OA
ATOM      9  H   UNL     1       4.778  -0.081   1.463  0.00  0.00    +0.145 HD
ATOM     10  H   UNL     1       5.652   1.269   0.662  0.00  0.00    +0.145 HD
ENDBRANCH   1   7
BRANCH   3  11
ATOM     11  C   UNL     1      -0.637  -1.391  -1.135  0.00  0.00    +0.186 C 
BRANCH  11  12
ATOM     12  C   UNL     1      -1.686  -0.546  -0.461  0.00  0.00    +0.044 A 
ATOM     13  C   UNL     1      -2.060   0.698  -1.005  0.00  0.00    +0.131 A 
ATOM     14  F   UNL     1      -1.507   1.141  -2.163  0.00  0.00    -0.205 F 
ATOM     15  C   UNL     1      -3.007   1.494  -0.355  0.00  0.00    +0.039 A 
ATOM     16  C   UNL     1      -3.580   1.066   0.845  0.00  0.00    +0.006 A 
ATOM     17  C   UNL     1      -3.203  -0.158   1.401  0.00  0.00    +0.039 A 
ATOM     18  C   UNL     1      -2.256  -0.962   0.758  0.00  0.00    +0.131 A 
ATOM     19  F   UNL     1      -1.894  -2.140   1.325  0.00  0.00    -0.205 F 
ENDBRANCH  11  12
ENDBRANCH   3  11
TORSDOF 3
