REMARK  Name = 
REMARK  5 active torsions:
REMARK  status: ('A' for Active; 'I' for Inactive)
REMARK    1  A    between atoms: C_2  and  C_3
REMARK    2  A    between atoms: C_3  and  C_4
REMARK    3  A    between atoms: C_4  and  C_5
REMARK    4  A    between atoms: C_4  and  N_10
REMARK    5  A    between atoms: C_12  and  C_15
REMARK                            x       y       z     vdW  Elec       q    Type
REMARK                         _______ _______ _______ _____ _____    ______ ____
ROOT
ATOM      1  N   UNL     1      -0.487   0.650   1.075  0.00  0.00    -0.267 N 
ATOM      2  C   UNL     1       0.406  -0.230   0.577  0.00  0.00    +0.118 A 
ATOM      3  C   UNL     1       1.628   0.401   0.484  0.00  0.00    +0.039 A 
ATOM      4  C   UNL     1       1.409   1.680   0.967  0.00  0.00    +0.144 A 
ATOM      5  N   UNL     1       0.113   1.806   1.313  0.00  0.00    -0.179 NA
ENDROOT
BRANCH   3   6
ATOM      6  C   UNL     1       2.896  -0.214   0.048  0.00  0.00    +0.086 A 
ATOM      7  C   UNL     1       3.952   0.511  -0.516  0.00  0.00    +0.045 A 
ATOM      8  C   UNL     1       4.108   1.835  -0.885  0.00  0.00    +0.031 A 
ATOM      9  C   UNL     1       5.380   1.912  -1.447  0.00  0.00    +0.085 A 
ATOM     10  N   UNL     1       5.983   0.702  -1.442  0.00  0.00    -0.346 N 
ATOM     11  C   UNL     1       5.098  -0.135  -0.880  0.00  0.00    +0.142 A 
ATOM     12  N   UNL     1       5.255  -1.471  -0.728  0.00  0.00    -0.218 NA
ATOM     13  C   UNL     1       4.227  -2.187  -0.187  0.00  0.00    +0.224 A 
ATOM     14  N   UNL     1       3.068  -1.562   0.188  0.00  0.00    -0.235 NA
ATOM     15  H   UNL     1       6.926   0.466  -1.821  0.00  0.00    +0.167 HD
ENDBRANCH   3   6
BRANCH   1  16
ATOM     16  C   UNL     1      -1.919   0.423   1.311  0.00  0.00    +0.124 C 
BRANCH  16  17
ATOM     17  C   UNL     1      -2.688   0.381  -0.042  0.00  0.00    +0.015 C 
ATOM     18  C   UNL     1      -2.459  -0.868  -0.899  0.00  0.00    +0.005 C 
ATOM     19  C   UNL     1      -3.736  -1.032  -1.702  0.00  0.00    +0.000 C 
ATOM     20  C   UNL     1      -4.844  -0.533  -0.791  0.00  0.00    +0.000 C 
ATOM     21  C   UNL     1      -4.213   0.524   0.110  0.00  0.00    +0.005 C 
ENDBRANCH  16  17
BRANCH  16  22
ATOM     22  C   UNL     1      -2.140  -0.807   2.224  0.00  0.00    +0.145 C 
BRANCH  22  24
ATOM     23  N   UNL     1      -1.234  -0.338   4.643  0.00  0.00    -0.196 NA
ATOM     24  C   UNL     1      -1.634  -0.545   3.578  0.00  0.00    +0.065 C 
ENDBRANCH  22  24
ENDBRANCH  16  22
ENDBRANCH   1  16
TORSDOF 5
