REMARK  Name = 
REMARK  13 active torsions:
REMARK  status: ('A' for Active; 'I' for Inactive)
REMARK    1  A    between atoms: C_1  and  S_2
REMARK    2  A    between atoms: S_2  and  C_3
REMARK    3  A    between atoms: S_2  and  C_10
REMARK    4  A    between atoms: C_3  and  C_4
REMARK    5  A    between atoms: C_4  and  CA_5
REMARK    6  A    between atoms: CA_5  and  N_6
REMARK    7  A    between atoms: CA_5  and  C_7
REMARK    8  A    between atoms: C_7  and  O_8
REMARK    9  A    between atoms: C_10  and  C_11
REMARK   10  A    between atoms: C_13  and  N_18
REMARK   11  A    between atoms: C_14  and  O_15
REMARK   12  A    between atoms: C_16  and  O_17
REMARK   13  A    between atoms: C_22  and  N_23
REMARK                            x       y       z     vdW  Elec       q    Type
REMARK                         _______ _______ _______ _____ _____    ______ ____
ROOT
ATOM      1  C   UNL     1      -0.147  -0.763  -0.430  0.00  0.00    +0.161 C 
ATOM      2  O   UNL     1       0.876   0.073  -0.935  0.00  0.00    -0.347 OA
ATOM      3  C   UNL     1       1.908  -0.745  -1.439  0.00  0.00    +0.253 C 
ATOM      4  C   UNL     1       1.757  -2.141  -0.858  0.00  0.00    +0.195 C 
ATOM      5  C   UNL     1       0.269  -2.233  -0.616  0.00  0.00    +0.177 C 
ENDROOT
BRANCH   3   6
ATOM      6  N   UNL     1       3.214  -0.178  -1.097  0.00  0.00    -0.286 N 
ATOM      7  C   UNL     1       4.338  -0.186  -1.858  0.00  0.00    +0.203 A 
ATOM      8  N   UNL     1       5.423   0.343  -1.226  0.00  0.00    -0.231 NA
ATOM      9  C   UNL     1       4.929   0.678  -0.019  0.00  0.00    +0.147 A 
ATOM     10  C   UNL     1       5.575   1.241   1.076  0.00  0.00    +0.147 A 
ATOM     11  N   UNL     1       4.836   1.452   2.207  0.00  0.00    -0.219 NA
ATOM     12  C   UNL     1       3.507   1.118   2.265  0.00  0.00    +0.225 A 
ATOM     13  N   UNL     1       2.883   0.562   1.183  0.00  0.00    -0.216 NA
ATOM     14  C   UNL     1       3.617   0.361   0.061  0.00  0.00    +0.167 A 
BRANCH  10  15
ATOM     15  N   UNL     1       6.959   1.587   1.037  0.00  0.00    -0.341 N 
ATOM     16  H   UNL     1       7.419   2.007   1.875  0.00  0.00    +0.144 HD
ATOM     17  H   UNL     1       7.530   1.427   0.177  0.00  0.00    +0.144 HD
ENDBRANCH  10  15
ENDBRANCH   3   6
BRANCH   4  18
ATOM     18  O   UNL     1       2.218  -3.115  -1.758  0.00  0.00    -0.385 OA
ATOM     19  H   UNL     1       2.224  -3.974  -1.260  0.00  0.00    +0.210 HD
ENDBRANCH   4  18
BRANCH   5  20
ATOM     20  O   UNL     1      -0.410  -2.824  -1.701  0.00  0.00    -0.386 OA
ATOM     21  H   UNL     1      -0.248  -2.269  -2.509  0.00  0.00    +0.210 HD
ENDBRANCH   5  20
BRANCH   1  22
ATOM     22  C   UNL     1      -0.387  -0.409   1.051  0.00  0.00    +0.093 C 
BRANCH  22  24
ATOM     23  C   UNL     1      -2.730  -2.313   0.914  0.00  0.00    +0.073 C 
ATOM     24  S   UNL     1      -2.037  -0.829   1.615  0.00  0.00    -0.209 S 
BRANCH  24  25
ATOM     25  C   UNL     1      -3.168   0.548   1.493  0.00  0.00    +0.061 C 
BRANCH  25  26
ATOM     26  C   UNL     1      -3.325   1.011   0.037  0.00  0.00    +0.040 C 
BRANCH  26  27
ATOM     27  CA  UNL     1      -4.418   2.085  -0.175  0.00  0.00    +0.161 C 
BRANCH  27  28
ATOM     28  N   UNL     1      -4.135   3.324   0.558  0.00  0.00    -0.318 NA
ATOM     29  H1  UNL     1      -3.183   3.665   0.290  0.00  0.00    +0.119 HD
ATOM     30  H2  UNL     1      -4.127   3.143   1.587  0.00  0.00    +0.119 HD
ENDBRANCH  27  28
BRANCH  27  31
ATOM     31  C   UNL     1      -5.788   1.563   0.164  0.00  0.00    +0.322 C 
ATOM     32  OXT UNL     1      -6.426   0.885  -0.686  0.00  0.00    -0.249 OA
BRANCH  31  33
ATOM     33  O   UNL     1      -6.339   1.783   1.423  0.00  0.00    -0.480 OA
ATOM     34  H   UNL     1      -7.253   1.418   1.662  0.00  0.00    +0.295 HD
ENDBRANCH  31  33
ENDBRANCH  27  31
ENDBRANCH  26  27
ENDBRANCH  25  26
ENDBRANCH  24  25
ENDBRANCH  22  24
ENDBRANCH   1  22
TORSDOF 12
