REMARK  Name = 
REMARK  11 active torsions:
REMARK  status: ('A' for Active; 'I' for Inactive)
REMARK    1  A    between atoms: C_1  and  C_2
REMARK    2  A    between atoms: C_2  and  C_3
REMARK    3  A    between atoms: C_2  and  C_4
REMARK    4  A    between atoms: C_2  and  N_5
REMARK    5  A    between atoms: N_5  and  C_6
REMARK    6  A    between atoms: C_6  and  C_7
REMARK    7  A    between atoms: C_7  and  O_8
REMARK    8  A    between atoms: C_7  and  C_9
REMARK    9  A    between atoms: C_11  and  C_12
REMARK   10  A    between atoms: C_12  and  O_13
REMARK   11  A    between atoms: C_14  and  O_15
REMARK                            x       y       z     vdW  Elec       q    Type
REMARK                         _______ _______ _______ _____ _____    ______ ____
ROOT
ATOM      1  C   UNL     1       1.132   0.502   1.358  0.00  0.00    -0.017 A 
ATOM      2  C   UNL     1       2.071   0.576   0.312  0.00  0.00    +0.015 A 
ATOM      3  C   UNL     1       3.116  -0.358   0.217  0.00  0.00    +0.020 A 
ATOM      4  C   UNL     1       3.204  -1.397   1.162  0.00  0.00    +0.122 A 
ATOM      5  C   UNL     1       2.270  -1.473   2.203  0.00  0.00    +0.046 A 
ATOM      6  C   UNL     1       1.244  -0.532   2.301  0.00  0.00    +0.010 A 
ENDROOT
BRANCH   4   7
ATOM      7  O   UNL     1       4.217  -2.351   1.063  0.00  0.00    -0.506 OA
ATOM      8  H   UNL     1       4.300  -3.109   1.731  0.00  0.00    +0.292 HD
ENDBRANCH   4   7
BRANCH   1   9
ATOM      9  C   UNL     1      -0.006   1.501   1.458  0.00  0.00    +0.158 C 
BRANCH   9  10
ATOM     10  O   UNL     1       0.498   2.808   1.595  0.00  0.00    -0.386 OA
ATOM     11  H   UNL     1       0.877   3.086   0.722  0.00  0.00    +0.210 HD
ENDBRANCH   9  10
BRANCH   9  12
ATOM     12  C   UNL     1      -0.979   1.403   0.266  0.00  0.00    +0.117 C 
BRANCH  12  13
ATOM     13  N   UNL     1      -1.637   0.083   0.253  0.00  0.00    -0.309 NA
ATOM     14  H   UNL     1      -0.922  -0.619  -0.053  0.00  0.00    +0.123 HD
BRANCH  13  16
ATOM     15  C   UNL     1      -3.270  -1.504  -0.648  0.00  0.00    +0.027 C 
ATOM     16  C   UNL     1      -2.821  -0.027  -0.637  0.00  0.00    +0.011 C 
ATOM     17  C   UNL     1      -3.993   0.819  -0.094  0.00  0.00    +0.027 C 
ATOM     18  C   UNL     1      -2.491   0.394  -2.088  0.00  0.00    +0.027 C 
ENDBRANCH  13  16
ENDBRANCH  12  13
ENDBRANCH   9  12
ENDBRANCH   1   9
BRANCH   3  19
ATOM     19  C   UNL     1       4.087  -0.280  -0.929  0.00  0.00    +0.194 C 
BRANCH  19  20
ATOM     20  O   UNL     1       3.685  -1.163  -1.938  0.00  0.00    -0.390 OA
ATOM     21  H   UNL     1       4.359  -1.080  -2.662  0.00  0.00    +0.210 HD
ENDBRANCH  19  20
ENDBRANCH   3  19
TORSDOF 8
