REMARK  Name = 
REMARK  2 active torsions:
REMARK  status: ('A' for Active; 'I' for Inactive)
REMARK    1  A    between atoms: O_2  and  C_3
REMARK    2  A    between atoms: C_8  and  C_9
REMARK                            x       y       z     vdW  Elec       q    Type
REMARK                         _______ _______ _______ _____ _____    ______ ____
ROOT
ATOM      1 NA   UNL     1       0.000   0.000   0.000  0.00  0.00    +0.000 Na
ENDROOT
TORSDOF 0
REMARK  Name = 
REMARK  2 active torsions:
REMARK  status: ('A' for Active; 'I' for Inactive)
REMARK    1  A    between atoms: O_2  and  C_3
REMARK    2  A    between atoms: C_8  and  C_9
REMARK                            x       y       z     vdW  Elec       q    Type
REMARK                         _______ _______ _______ _____ _____    ______ ____
ROOT
ATOM      1  C   UNL     1      -0.076  -0.994   0.309  0.00  0.00    +0.000 A 
ATOM      2  C   UNL     1       1.282  -1.126  -0.009  0.00  0.00    +0.000 A 
ATOM      3  C   UNL     1       2.010  -0.034  -0.484  0.00  0.00    +0.000 A 
ATOM      4  C   UNL     1       1.386   1.202  -0.648  0.00  0.00    +0.000 A 
ATOM      5  C   UNL     1       0.027   1.345  -0.356  0.00  0.00    +0.000 A 
ATOM      6  C   UNL     1      -0.727   0.250   0.105  0.00  0.00    +0.000 A 
ENDROOT
BRANCH   6   7
ATOM      7  C   UNL     1      -2.179   0.430   0.321  0.00  0.00    +0.000 C 
ATOM      8  O   UNL     1      -3.075  -0.592   0.031  0.00  0.00    +0.000 OA
ATOM      9  O   UNL     1      -2.627   1.540   0.715  0.00  0.00    +0.000 OA
ENDBRANCH   6   7
BRANCH   1  10
ATOM     10  O   UNL     1      -0.727  -2.102   0.855  0.00  0.00    +0.000 OA
ATOM     11  H   UNL     1      -1.646  -2.058   1.273  0.00  0.00    +0.000 HD
ENDBRANCH   1  10
TORSDOF 2
