REMARK  Name = 
REMARK  2 active torsions:
REMARK  status: ('A' for Active; 'I' for Inactive)
REMARK    1  A    between atoms: C_2  and  C_4
REMARK    2  A    between atoms: C_9  and  O_10
REMARK                            x       y       z     vdW  Elec       q    Type
REMARK                         _______ _______ _______ _____ _____    ______ ____
ROOT
ATOM      1  C   UNL     1      -0.362  -0.431   0.138  0.00  0.00    +0.078 A 
ATOM      2  C   UNL     1       0.445  -1.503  -0.286  0.00  0.00    +0.017 A 
ATOM      3  C   UNL     1       1.785  -1.293  -0.621  0.00  0.00    +0.001 A 
ATOM      4  C   UNL     1       2.338  -0.015  -0.528  0.00  0.00    +0.004 A 
ATOM      5  C   UNL     1       1.555   1.055  -0.090  0.00  0.00    +0.046 A 
ATOM      6  C   UNL     1       0.209   0.855   0.255  0.00  0.00    +0.129 A 
ENDROOT
BRANCH   1   8
ATOM      7  N   UNL     1      -2.801   0.268   0.168  0.00  0.00    -0.325 N 
ATOM      8  C   UNL     1      -1.782  -0.686   0.475  0.00  0.00    +0.245 C 
ATOM      9  O   UNL     1      -2.108  -1.778   1.013  0.00  0.00    -0.270 OA
ATOM     10  H   UNL     1      -3.787   0.093   0.463  0.00  0.00    +0.145 HD
ATOM     11  H   UNL     1      -2.603   1.097  -0.435  0.00  0.00    +0.145 HD
ENDBRANCH   1   8
BRANCH   6  12
ATOM     12  O   UNL     1      -0.543   1.925   0.738  0.00  0.00    -0.506 OA
ATOM     13  H   UNL     1      -0.147   2.853   0.836  0.00  0.00    +0.292 HD
ENDBRANCH   6  12
TORSDOF 2
