REMARK  Name = 
REMARK  3 active torsions:
REMARK  status: ('A' for Active; 'I' for Inactive)
REMARK    1  A    between atoms: O_1  and  C_2
REMARK    2  A    between atoms: C_2  and  C_4
REMARK    3  A    between atoms: C_9  and  O_10
REMARK                            x       y       z     vdW  Elec       q    Type
REMARK                         _______ _______ _______ _____ _____    ______ ____
ROOT
ATOM      1  C   UNL     1       0.585  -0.225   0.210  0.00  0.00    +0.100 A 
ATOM      2  C   UNL     1      -0.147  -1.295   0.762  0.00  0.00    +0.018 A 
ATOM      3  C   UNL     1      -1.535  -1.357   0.622  0.00  0.00    +0.001 A 
ATOM      4  C   UNL     1      -2.215  -0.355  -0.069  0.00  0.00    +0.004 A 
ATOM      5  C   UNL     1      -1.508   0.714  -0.622  0.00  0.00    +0.046 A 
ATOM      6  C   UNL     1      -0.113   0.789  -0.489  0.00  0.00    +0.131 A 
ENDROOT
BRANCH   1   7
ATOM      7  C   UNL     1       2.062  -0.185   0.375  0.00  0.00    +0.340 C 
ATOM      8  O   UNL     1       2.654  -1.104   1.004  0.00  0.00    -0.245 OA
BRANCH   7   9
ATOM      9  O   UNL     1       2.814   0.858  -0.158  0.00  0.00    -0.477 OA
ATOM     10  H   UNL     1       3.820   0.885  -0.046  0.00  0.00    +0.295 HD
ENDBRANCH   7   9
ENDBRANCH   1   7
BRANCH   6  11
ATOM     11  O   UNL     1       0.569   1.867  -1.053  0.00  0.00    -0.506 OA
ATOM     12  H   UNL     1       0.083   2.601  -1.556  0.00  0.00    +0.292 HD
ENDBRANCH   6  11
TORSDOF 3
