REMARK  Name = 
REMARK  19 active torsions:
REMARK  status: ('A' for Active; 'I' for Inactive)
REMARK    1  A    between atoms: O_1  and  C_2
REMARK    2  A    between atoms: C_2  and  C_3
REMARK    3  A    between atoms: C_4  and  O_5
REMARK    4  A    between atoms: C_8  and  C_10
REMARK    5  A    between atoms: C_10  and  O_11
REMARK    6  A    between atoms: C_10  and  C_12
REMARK    7  A    between atoms: C_12  and  N_13
REMARK    8  A    between atoms: N_13  and  C_14
REMARK    9  A    between atoms: C_14  and  C_15
REMARK   10  A    between atoms: C_15  and  C_16
REMARK   11  A    between atoms: C_16  and  C_17
REMARK   12  A    between atoms: C_17  and  C_18
REMARK   13  A    between atoms: C_18  and  C_19
REMARK   14  A    between atoms: C_19  and  O_20
REMARK   15  A    between atoms: O_20  and  C_21
REMARK   16  A    between atoms: C_21  and  C_22
REMARK   17  A    between atoms: C_22  and  C_23
REMARK   18  A    between atoms: C_23  and  C_24
REMARK   19  A    between atoms: C_24  and  C_25
REMARK                            x       y       z     vdW  Elec       q    Type
REMARK                         _______ _______ _______ _____ _____    ______ ____
ROOT
ATOM      1  N   UNL     1      -2.306  -1.270   1.400  0.00  0.00    -0.313 NA
ATOM      2  H   UNL     1      -2.108  -1.112   2.416  0.00  0.00    +0.122 HD
ENDROOT
BRANCH   1   3
ATOM      3  C   UNL     1      -3.595  -0.636   1.089  0.00  0.00    +0.117 C 
BRANCH   3   4
ATOM      4  C   UNL     1      -3.426   0.885   1.029  0.00  0.00    +0.158 C 
BRANCH   4   9
ATOM      5  C   UNL     1      -6.676   2.137  -0.575  0.00  0.00    +0.020 A 
ATOM      6  C   UNL     1      -7.304   2.750   0.535  0.00  0.00    +0.122 A 
ATOM      7  C   UNL     1      -6.670   2.741   1.781  0.00  0.00    +0.046 A 
ATOM      8  C   UNL     1      -5.420   2.143   1.939  0.00  0.00    +0.010 A 
ATOM      9  C   UNL     1      -4.772   1.554   0.844  0.00  0.00    -0.017 A 
ATOM     10  C   UNL     1      -5.411   1.548  -0.408  0.00  0.00    +0.015 A 
BRANCH   6  11
ATOM     11  O   UNL     1      -8.551   3.371   0.435  0.00  0.00    -0.506 OA
ATOM     12  H   UNL     1      -9.076   3.426  -0.428  0.00  0.00    +0.292 HD
ENDBRANCH   6  11
BRANCH   5  13
ATOM     13  C   UNL     1      -7.325   2.124  -1.935  0.00  0.00    +0.194 C 
BRANCH  13  14
ATOM     14  O   UNL     1      -7.354   3.424  -2.452  0.00  0.00    -0.390 OA
ATOM     15  H   UNL     1      -7.837   3.368  -3.318  0.00  0.00    +0.210 HD
ENDBRANCH  13  14
ENDBRANCH   5  13
ENDBRANCH   4   9
BRANCH   4  16
ATOM     16  O   UNL     1      -2.562   1.218  -0.027  0.00  0.00    -0.386 OA
ATOM     17  H   UNL     1      -2.319   2.174   0.091  0.00  0.00    +0.210 HD
ENDBRANCH   4  16
ENDBRANCH   3   4
ENDBRANCH   1   3
BRANCH   1  18
ATOM     18  C   UNL     1      -2.344  -2.721   1.161  0.00  0.00    +0.081 C 
BRANCH  18  19
ATOM     19  C   UNL     1      -1.919  -3.054  -0.279  0.00  0.00    +0.015 C 
BRANCH  19  20
ATOM     20  C   UNL     1      -0.528  -2.513  -0.656  0.00  0.00    +0.001 C 
BRANCH  20  21
ATOM     21  C   UNL     1       0.606  -3.224   0.097  0.00  0.00    +0.002 C 
BRANCH  21  22
ATOM     22  C   UNL     1       1.977  -2.736  -0.384  0.00  0.00    +0.028 C 
BRANCH  22  23
ATOM     23  C   UNL     1       3.110  -3.457   0.354  0.00  0.00    +0.160 C 
BRANCH  23  24
ATOM     24  O   UNL     1       4.365  -3.030  -0.141  0.00  0.00    -0.380 OA
BRANCH  24  25
ATOM     25  C   UNL     1       4.888  -1.993   0.665  0.00  0.00    +0.160 C 
BRANCH  25  26
ATOM     26  C   UNL     1       6.124  -1.387  -0.005  0.00  0.00    +0.028 C 
BRANCH  26  27
ATOM     27  C   UNL     1       5.857  -0.857  -1.427  0.00  0.00    +0.007 C 
BRANCH  27  28
ATOM     28  C   UNL     1       4.867   0.319  -1.492  0.00  0.00    +0.035 C 
BRANCH  28  29
ATOM     29  C   UNL     1       5.347   1.518  -0.713  0.00  0.00    -0.047 A 
ATOM     30  C   UNL     1       6.426   2.283  -1.187  0.00  0.00    +0.003 A 
ATOM     31  C   UNL     1       6.886   3.383  -0.457  0.00  0.00    +0.000 A 
ATOM     32  C   UNL     1       6.271   3.728   0.751  0.00  0.00    +0.000 A 
ATOM     33  C   UNL     1       5.197   2.973   1.229  0.00  0.00    +0.000 A 
ATOM     34  C   UNL     1       4.736   1.871   0.502  0.00  0.00    +0.003 A 
ENDBRANCH  28  29
ENDBRANCH  27  28
ENDBRANCH  26  27
ENDBRANCH  25  26
ENDBRANCH  24  25
ENDBRANCH  23  24
ENDBRANCH  22  23
ENDBRANCH  21  22
ENDBRANCH  20  21
ENDBRANCH  19  20
ENDBRANCH  18  19
ENDBRANCH   1  18
TORSDOF 19
