REMARK  Name = 
REMARK  6 active torsions:
REMARK  status: ('A' for Active; 'I' for Inactive)
REMARK    1  A    between atoms: O_1  and  C_2
REMARK    2  A    between atoms: C_2  and  C_4
REMARK    3  A    between atoms: C_9  and  O_10
REMARK    4  A    between atoms: O_10  and  C_11
REMARK    5  A    between atoms: C_11  and  C_13
REMARK    6  A    between atoms: C_18  and  O_19
REMARK                            x       y       z     vdW  Elec       q    Type
REMARK                         _______ _______ _______ _____ _____    ______ ____
ROOT
ATOM      1  O   UNL     1       0.359  -0.014   0.007  0.00  0.00    -0.421 OA
ENDROOT
BRANCH   1   7
ATOM      2  C   UNL     1       2.729   0.245   0.523  0.00  0.00    +0.101 A 
ATOM      3  C   UNL     1       4.069  -0.102   0.254  0.00  0.00    +0.018 A 
ATOM      4  C   UNL     1       4.381  -1.014  -0.756  0.00  0.00    +0.001 A 
ATOM      5  C   UNL     1       3.366  -1.587  -1.518  0.00  0.00    +0.004 A 
ATOM      6  C   UNL     1       2.034  -1.259  -1.268  0.00  0.00    +0.047 A 
ATOM      7  C   UNL     1       1.698  -0.357  -0.239  0.00  0.00    +0.146 A 
BRANCH   2   8
ATOM      8  C   UNL     1       2.434   1.223   1.603  0.00  0.00    +0.340 C 
ATOM      9  O   UNL     1       3.376   1.743   2.262  0.00  0.00    -0.245 OA
BRANCH   8  10
ATOM     10  O   UNL     1       1.124   1.582   1.908  0.00  0.00    -0.477 OA
ATOM     11  H   UNL     1       0.923   2.249   2.643  0.00  0.00    +0.295 HD
ENDBRANCH   8  10
ENDBRANCH   2   8
ENDBRANCH   1   7
BRANCH   1  12
ATOM     12  C   UNL     1      -0.745  -0.856  -0.186  0.00  0.00    +0.348 C 
ATOM     13  O   UNL     1      -0.588  -2.104  -0.274  0.00  0.00    -0.244 OA
BRANCH  12  14
ATOM     14  C   UNL     1      -2.111  -0.291  -0.164  0.00  0.00    +0.101 A 
ATOM     15  C   UNL     1      -3.141  -1.032   0.446  0.00  0.00    +0.018 A 
ATOM     16  C   UNL     1      -4.428  -0.502   0.559  0.00  0.00    +0.001 A 
ATOM     17  C   UNL     1      -4.706   0.772   0.065  0.00  0.00    +0.004 A 
ATOM     18  C   UNL     1      -3.701   1.512  -0.560  0.00  0.00    +0.046 A 
ATOM     19  C   UNL     1      -2.410   0.987  -0.700  0.00  0.00    +0.131 A 
BRANCH  19  20
ATOM     20  O   UNL     1      -1.472   1.744  -1.404  0.00  0.00    -0.506 OA
ATOM     21  H   UNL     1      -0.577   1.382  -1.703  0.00  0.00    +0.292 HD
ENDBRANCH  19  20
ENDBRANCH  12  14
ENDBRANCH   1  12
TORSDOF 6
