REMARK  Name = 
REMARK  10 active torsions:
REMARK  status: ('A' for Active; 'I' for Inactive)
REMARK    1  A    between atoms: C_1  and  C_2
REMARK    2  A    between atoms: C_2  and  C_3
REMARK    3  A    between atoms: C_5  and  C_6
REMARK    4  A    between atoms: C_9  and  C_36
REMARK    5  A    between atoms: N_10  and  C_11
REMARK    6  A    between atoms: C_11  and  C_12
REMARK    7  A    between atoms: C_17  and  C_20
REMARK    8  A    between atoms: C_25  and  N_26
REMARK    9  A    between atoms: N_26  and  S_27
REMARK   10  A    between atoms: S_27  and  C_30
REMARK                            x       y       z     vdW  Elec       q    Type
REMARK                         _______ _______ _______ _____ _____    ______ ____
ROOT
ATOM      1  C   UNL     1       4.241   1.243   1.998  0.00  0.00    -0.027 A 
ATOM      2  C   UNL     1       4.380   2.159   0.969  0.00  0.00    +0.018 A 
ATOM      3  C   UNL     1       3.544   1.718  -0.074  0.00  0.00    +0.035 A 
ATOM      4  C   UNL     1       3.670   0.396  -0.463  0.00  0.00    +0.137 A 
ATOM      5  O   UNL     1       2.502   0.125  -1.310  0.00  0.00    -0.454 OA
ATOM      6  C   UNL     1       1.666   1.363  -1.330  0.00  0.00    +0.152 A 
ATOM      7  C   UNL     1       2.540   2.323  -0.823  0.00  0.00    +0.071 A 
ATOM      8 BR   UNL     1       2.476   4.182  -0.635  0.00  0.00    -0.046 Br
ATOM      9  C   UNL     1       4.648  -0.369   0.298  0.00  0.00    +0.047 A 
ATOM     10  C   UNL     1       4.905   0.111   1.638  0.00  0.00    +0.009 A 
ENDROOT
BRANCH   6  11
ATOM     11  C   UNL     1       0.028   1.518  -1.449  0.00  0.00    +0.041 A 
ATOM     12  C   UNL     1      -0.358   2.907  -1.458  0.00  0.00    +0.013 A 
ATOM     13  C   UNL     1      -1.605   3.459  -1.121  0.00  0.00    +0.001 A 
ATOM     14  C   UNL     1      -2.650   2.619  -0.948  0.00  0.00    +0.002 A 
ATOM     15  C   UNL     1      -2.395   1.265  -1.091  0.00  0.00    +0.025 A 
ATOM     16  C   UNL     1      -1.123   0.643  -1.235  0.00  0.00    +0.059 A 
BRANCH  16  17
ATOM     17  N   UNL     1      -1.097  -0.814  -1.099  0.00  0.00    -0.212 N 
ATOM     18  H   UNL     1      -0.221  -1.285  -1.320  0.00  0.00    +0.174 HD
BRANCH  17  19
ATOM     19  S   UNL     1      -2.253  -1.967  -0.608  0.00  0.00    +0.141 S 
ATOM     20  O   UNL     1      -2.106  -3.005  -1.619  0.00  0.00    -0.147 OA
ATOM     21  O   UNL     1      -1.961  -2.335   0.770  0.00  0.00    -0.147 OA
BRANCH  19  22
ATOM     22  C   UNL     1      -3.990  -1.312  -0.690  0.00  0.00    +0.538 C 
ATOM     23  F   UNL     1      -4.219  -0.363   0.269  0.00  0.00    -0.149 F 
ATOM     24  F   UNL     1      -4.249  -0.759  -1.912  0.00  0.00    -0.149 F 
ATOM     25  F   UNL     1      -4.956  -2.252  -0.500  0.00  0.00    -0.149 F 
ENDBRANCH  19  22
ENDBRANCH  17  19
ENDBRANCH  16  17
ENDBRANCH   6  11
BRANCH   1  26
ATOM     26  C   UNL     1       3.083   1.123   2.982  0.00  0.00    +0.158 C 
BRANCH  26  31
ATOM     27  C   UNL     1       0.857   1.939   2.161  0.00  0.00    +0.111 A 
ATOM     28  N   UNL     1       0.305   3.154   1.977  0.00  0.00    -0.236 NA
ATOM     29  C   UNL     1       1.231   4.165   2.452  0.00  0.00    +0.075 A 
ATOM     30  C   UNL     1       2.314   3.510   3.046  0.00  0.00    +0.127 A 
ATOM     31  N   UNL     1       2.076   2.156   2.772  0.00  0.00    -0.319 N 
BRANCH  30  32
ATOM     32  C   UNL     1       3.511   3.939   3.737  0.00  0.00    +0.260 C 
ATOM     33  N   UNL     1       3.766   5.238   3.864  0.00  0.00    -0.324 N 
ATOM     34  O   UNL     1       4.380   3.164   4.226  0.00  0.00    -0.269 OA
ATOM     35  H   UNL     1       4.650   5.556   4.225  0.00  0.00    +0.145 HD
ATOM     36  H   UNL     1       3.418   5.789   3.114  0.00  0.00    +0.145 HD
ENDBRANCH  30  32
BRANCH  29  37
ATOM     37  C   UNL     1       1.024   5.767   2.148  0.00  0.00    +0.040 C 
ATOM     38  C   UNL     1       1.692   6.999   2.793  0.00  0.00    +0.010 C 
ATOM     39  C   UNL     1       2.217   6.516   1.486  0.00  0.00    +0.010 C 
ENDBRANCH  29  37
BRANCH  27  41
ATOM     40  C   UNL     1       1.013  -0.459   0.900  0.00  0.00    +0.012 C 
ATOM     41  C   UNL     1       0.320   0.459   1.905  0.00  0.00    +0.071 C 
ENDBRANCH  27  41
ENDBRANCH  26  31
ENDBRANCH   1  26
TORSDOF 9
