REMARK  Name = 
REMARK  17 active torsions:
REMARK  status: ('A' for Active; 'I' for Inactive)
REMARK    1  A    between atoms: C_1  and  C_2
REMARK    2  A    between atoms: C_2  and  C_3
REMARK    3  A    between atoms: C_2  and  C_4
REMARK    4  A    between atoms: C_2  and  N_5
REMARK    5  A    between atoms: C_6  and  C_8
REMARK    6  A    between atoms: N_17  and  C_18
REMARK    7  A    between atoms: C_18  and  C_19
REMARK    8  A    between atoms: C_19  and  O_20
REMARK    9  A    between atoms: C_19  and  C_21
REMARK   10  A    between atoms: C_21  and  C_22
REMARK   11  A    between atoms: C_21  and  N_29
REMARK   12  A    between atoms: C_22  and  C_23
REMARK   13  A    between atoms: C_30  and  C_32
REMARK   14  A    between atoms: C_32  and  C_33
REMARK   15  A    between atoms: C_32  and  N_37
REMARK   16  A    between atoms: C_33  and  C_34
REMARK   17  A    between atoms: C_38  and  C_40
REMARK                            x       y       z     vdW  Elec       q    Type
REMARK                         _______ _______ _______ _____ _____    ______ ____
ROOT
ATOM      1  C   UNL     1       0.511  -2.835  -0.598  0.00  0.00    +0.107 C 
ENDROOT
BRANCH   1   2
ATOM      2  N   UNL     1       1.665  -2.452   0.222  0.00  0.00    -0.308 N 
ATOM      3  C   UNL     1       2.340  -1.189   0.101  0.00  0.00    +0.234 C 
ATOM      4  O   UNL     1       1.945  -0.331  -0.736  0.00  0.00    -0.274 OA
ATOM      5  H   UNL     1       1.985  -3.109   0.958  0.00  0.00    +0.149 HD
BRANCH   3   6
ATOM      6  C   UNL     1       3.484  -0.863   1.027  0.00  0.00    +0.168 C 
BRANCH   6   7
ATOM      7  N   UNL     1       4.363   0.143   0.415  0.00  0.00    -0.298 N 
ATOM      8  C   UNL     1       5.727  -0.129   0.042  0.00  0.00    +0.263 C 
ATOM      9  O   UNL     1       6.129  -1.324  -0.031  0.00  0.00    -0.269 OA
ATOM     10  H   UNL     1       3.985   1.107   0.290  0.00  0.00    +0.150 HD
BRANCH   8  11
ATOM     11  C   UNL     1       6.668   0.979  -0.239  0.00  0.00    +0.126 A 
ATOM     12  N   UNL     1       6.242   2.271  -0.143  0.00  0.00    -0.242 NA
ATOM     13  C   UNL     1       7.070   3.328  -0.361  0.00  0.00    +0.072 A 
ATOM     14  C   UNL     1       6.586   4.635  -0.261  0.00  0.00    +0.028 A 
ATOM     15  C   UNL     1       7.446   5.722  -0.467  0.00  0.00    +0.002 A 
ATOM     16  C   UNL     1       8.791   5.502  -0.775  0.00  0.00    +0.001 A 
ATOM     17  C   UNL     1       9.282   4.196  -0.888  0.00  0.00    +0.010 A 
ATOM     18  C   UNL     1       8.424   3.102  -0.682  0.00  0.00    +0.000 A 
ATOM     19  C   UNL     1       8.888   1.785  -0.784  0.00  0.00    +0.012 A 
ATOM     20  C   UNL     1       8.012   0.722  -0.568  0.00  0.00    +0.033 A 
ENDBRANCH   8  11
ENDBRANCH   6   7
BRANCH   6  21
ATOM     21  C   UNL     1       2.960  -0.336   2.378  0.00  0.00    +0.127 C 
BRANCH  21  22
ATOM     22  C   UNL     1       2.310  -1.420   3.191  0.00  0.00    +0.213 C 
ATOM     23  N   UNL     1       3.107  -2.482   3.711  0.00  0.00    -0.329 N 
ATOM     24  O   UNL     1       1.068  -1.391   3.415  0.00  0.00    -0.276 OA
ATOM     25  H   UNL     1       2.737  -3.261   4.306  0.00  0.00    +0.145 HD
ATOM     26  H   UNL     1       2.601  -3.282   4.153  0.00  0.00    +0.145 HD
ENDBRANCH  21  22
ENDBRANCH   6  21
ENDBRANCH   3   6
ENDBRANCH   1   2
BRANCH   1  27
ATOM     27  C   UNL     1      -0.808  -2.468   0.141  0.00  0.00    +0.149 C 
BRANCH  27  28
ATOM     28  O   UNL     1      -1.924  -3.015  -0.515  0.00  0.00    -0.389 OA
ATOM     29  H   UNL     1      -1.951  -2.619  -1.423  0.00  0.00    +0.210 HD
ENDBRANCH  27  28
BRANCH  27  30
ATOM     30  C   UNL     1      -0.997  -0.947   0.302  0.00  0.00    +0.118 C 
BRANCH  30  40
ATOM     31  C   UNL     1      -3.263   0.023   0.000  0.00  0.00    +0.143 C 
ATOM     32  C   UNL     1      -4.649   0.129   0.653  0.00  0.00    +0.032 C 
ATOM     33  C   UNL     1      -4.568   0.824   2.025  0.00  0.00    -0.005 C 
ATOM     34  C   UNL     1      -5.956   0.953   2.690  0.00  0.00    +0.004 C 
ATOM     35  C   UNL     1      -6.483  -0.394   3.207  0.00  0.00    +0.000 C 
ATOM     36  C   UNL     1      -5.473  -1.057   4.151  0.00  0.00    +0.000 C 
ATOM     37  C   UNL     1      -4.115  -1.246   3.462  0.00  0.00    +0.005 C 
ATOM     38  C   UNL     1      -3.565   0.107   2.957  0.00  0.00    +0.006 C 
ATOM     39  C   UNL     1      -2.198  -0.052   2.264  0.00  0.00    +0.089 C 
ATOM     40  N   UNL     1      -2.315  -0.662   0.919  0.00  0.00    -0.289 NA
BRANCH  31  42
ATOM     41  N   UNL     1      -3.540   2.006  -1.580  0.00  0.00    -0.309 N 
ATOM     42  C   UNL     1      -2.807   1.383  -0.504  0.00  0.00    +0.231 C 
ATOM     43  O   UNL     1      -1.818   1.967   0.011  0.00  0.00    -0.274 OA
ATOM     44  H   UNL     1      -4.222   1.403  -2.095  0.00  0.00    +0.149 HD
BRANCH  41  46
ATOM     45  C   UNL     1      -2.055   3.785  -2.446  0.00  0.00    +0.031 C 
ATOM     46  C   UNL     1      -3.463   3.436  -1.935  0.00  0.00    +0.026 C 
ATOM     47  C   UNL     1      -4.480   3.735  -3.058  0.00  0.00    +0.031 C 
ATOM     48  C   UNL     1      -3.825   4.307  -0.717  0.00  0.00    +0.031 C 
ENDBRANCH  41  46
ENDBRANCH  31  42
ENDBRANCH  30  40
ENDBRANCH  27  30
ENDBRANCH   1  27
BRANCH   1  49
ATOM     49  C   UNL     1       0.607  -4.353  -0.904  0.00  0.00    +0.060 C 
BRANCH  49  50
ATOM     50  C   UNL     1      -0.150  -4.751  -2.148  0.00  0.00    -0.046 A 
ATOM     51  C   UNL     1       0.328  -4.369  -3.413  0.00  0.00    +0.004 A 
ATOM     52  C   UNL     1      -0.378  -4.714  -4.570  0.00  0.00    +0.000 A 
ATOM     53  C   UNL     1      -1.558  -5.458  -4.476  0.00  0.00    +0.000 A 
ATOM     54  C   UNL     1      -2.033  -5.859  -3.223  0.00  0.00    +0.000 A 
ATOM     55  C   UNL     1      -1.332  -5.509  -2.062  0.00  0.00    +0.004 A 
ENDBRANCH  49  50
ENDBRANCH   1  49
TORSDOF 14
