REMARK  Name = 
REMARK  5 active torsions:
REMARK  status: ('A' for Active; 'I' for Inactive)
REMARK    1  A    between atoms: N_1  and  C_2
REMARK    2  A    between atoms: C_2  and  C_3
REMARK    3  A    between atoms: C_2  and  C_13
REMARK    4  A    between atoms: C_10  and  C_11
REMARK    5  A    between atoms: C_19  and  O_20
REMARK                            x       y       z     vdW  Elec       q    Type
REMARK                         _______ _______ _______ _____ _____    ______ ____
ROOT
ATOM      1  C   UNL     1       0.480   0.870   1.117  0.00  0.00    +0.144 C 
ENDROOT
BRANCH   1   2
ATOM      2  C   UNL     1      -0.934   0.527   0.504  0.00  0.00    -0.002 C 
ATOM      3  C   UNL     1      -1.677  -0.485   1.434  0.00  0.00    +0.012 C 
ATOM      4  C   UNL     1      -3.087  -0.800   0.892  0.00  0.00    -0.007 C 
ATOM      5  C   UNL     1      -3.913   0.498   0.814  0.00  0.00    +0.007 C 
ATOM      6  C   UNL     1      -3.211   1.494  -0.129  0.00  0.00    -0.007 C 
ATOM      7  C   UNL     1      -3.086   0.873  -1.537  0.00  0.00    +0.038 C 
ATOM      8  C   UNL     1      -2.257  -0.431  -1.466  0.00  0.00    +0.067 C 
ATOM      9  C   UNL     1      -2.967  -1.426  -0.513  0.00  0.00    +0.038 C 
ATOM     10  C   UNL     1      -0.842  -0.102  -0.919  0.00  0.00    +0.043 C 
ATOM     11  C   UNL     1      -1.804   1.819   0.416  0.00  0.00    +0.012 C 
BRANCH   8  12
ATOM     12  O   UNL     1      -2.167  -0.976  -2.760  0.00  0.00    -0.389 OA
ATOM     13  H   UNL     1      -1.632  -1.811  -2.700  0.00  0.00    +0.210 HD
ENDBRANCH   8  12
ENDBRANCH   1   2
BRANCH   1  14
ATOM     14  C   UNL     1       1.418  -0.324   1.240  0.00  0.00    +0.234 C 
ATOM     15  O   UNL     1       1.253  -1.096   2.225  0.00  0.00    -0.274 OA
ATOM     16  N   UNL     1       2.514  -0.588   0.334  0.00  0.00    -0.281 N 
ATOM     17  C   UNL     1       2.669   0.005  -0.987  0.00  0.00    +0.081 C 
ATOM     18  C   UNL     1       3.899   0.883  -1.157  0.00  0.00    +0.028 C 
ATOM     19  C   UNL     1       3.935  -0.578  -1.580  0.00  0.00    +0.014 C 
ATOM     20  C   UNL     1       4.496  -1.577  -0.573  0.00  0.00    +0.043 C 
ATOM     21  C   UNL     1       3.563  -1.556   0.643  0.00  0.00    +0.179 C 
BRANCH  21  22
ATOM     22  C   UNL     1       4.292  -1.152   1.859  0.00  0.00    +0.085 C 
ATOM     23  N   UNL     1       4.863  -0.834   2.813  0.00  0.00    -0.195 NA
ENDBRANCH  21  22
ENDBRANCH   1  14
BRANCH   1  24
ATOM     24  N   UNL     1       1.157   2.003   0.469  0.00  0.00    -0.319 NA
ATOM     25  H   UNL     1       0.783   2.897   0.862  0.00  0.00    +0.119 HD
ATOM     26  H   UNL     1       0.968   2.021  -0.556  0.00  0.00    +0.119 HD
ENDBRANCH   1  24
TORSDOF 5
