REMARK  Name = 
REMARK  7 active torsions:
REMARK  status: ('A' for Active; 'I' for Inactive)
REMARK    1  A    between atoms: C_1  and  N_2
REMARK    2  A    between atoms: C_5  and  O_11
REMARK    3  A    between atoms: O_11  and  C_12
REMARK    4  A    between atoms: C_12  and  C_14
REMARK    5  A    between atoms: C_14  and  C_15
REMARK    6  A    between atoms: C_14  and  C_17
REMARK    7  A    between atoms: C_15  and  O_16
REMARK                            x       y       z     vdW  Elec       q    Type
REMARK                         _______ _______ _______ _____ _____    ______ ____
ROOT
ATOM      1  C   UNL     1       1.179  -0.922  -0.820  0.00  0.00    +0.317 C 
ATOM      2  O   UNL     1       1.137  -0.974  -2.080  0.00  0.00    -0.250 OA
ENDROOT
BRANCH   1   3
ATOM      3  O   UNL     1       0.179  -0.249  -0.106  0.00  0.00    -0.461 OA
BRANCH   3   8
ATOM      4  C   UNL     1      -4.768   1.639  -1.686  0.00  0.00    +0.105 C 
ATOM      5  N   UNL     1      -3.482   1.098  -1.215  0.00  0.00    -0.294 NA
ATOM      6  C   UNL     1      -3.418  -0.365  -1.178  0.00  0.00    +0.092 C 
ATOM      7  C   UNL     1      -1.922  -0.749  -1.283  0.00  0.00    +0.066 C 
ATOM      8  C   UNL     1      -0.961   0.354  -0.717  0.00  0.00    +0.180 C 
ATOM      9  C   UNL     1      -1.609   1.359   0.293  0.00  0.00    +0.066 C 
ATOM     10  C   UNL     1      -3.150   1.440   0.171  0.00  0.00    +0.092 C 
ATOM     11  C   UNL     1      -3.755   0.353   1.070  0.00  0.00    +0.166 C 
ATOM     12  O   UNL     1      -5.035  -0.098   0.694  0.00  0.00    -0.365 OA
ATOM     13  C   UNL     1      -3.928  -0.813   0.198  0.00  0.00    +0.166 C 
ENDBRANCH   3   8
ENDBRANCH   1   3
BRANCH   1  14
ATOM     14  C   UNL     1       2.345  -1.541  -0.093  0.00  0.00    +0.153 C 
BRANCH  14  15
ATOM     15  C   UNL     1       3.496  -0.562   0.050  0.00  0.00    -0.032 A 
ATOM     16  C   UNL     1       3.290   0.753   0.514  0.00  0.00    +0.004 A 
ATOM     17  C   UNL     1       4.369   1.629   0.663  0.00  0.00    +0.000 A 
ATOM     18  C   UNL     1       5.664   1.203   0.360  0.00  0.00    +0.000 A 
ATOM     19  C   UNL     1       5.884  -0.101  -0.087  0.00  0.00    +0.000 A 
ATOM     20  C   UNL     1       4.808  -0.982  -0.237  0.00  0.00    +0.004 A 
ENDBRANCH  14  15
BRANCH  14  21
ATOM     21  C   UNL     1       1.937  -2.135   1.267  0.00  0.00    +0.175 C 
BRANCH  21  22
ATOM     22  O   UNL     1       1.538  -1.130   2.161  0.00  0.00    -0.394 OA
ATOM     23  H   UNL     1       1.283  -1.594   3.000  0.00  0.00    +0.209 HD
ENDBRANCH  21  22
ENDBRANCH  14  21
ENDBRANCH   1  14
TORSDOF 6
