REMARK  Name = 
REMARK  7 active torsions:
REMARK  status: ('A' for Active; 'I' for Inactive)
REMARK    1  A    between atoms: C_1  and  C_2
REMARK    2  A    between atoms: C_2  and  C_3
REMARK    3  A    between atoms: C_3  and  C_4
REMARK    4  A    between atoms: C_4  and  C_5
REMARK    5  A    between atoms: C_4  and  C_6
REMARK    6  A    between atoms: C_6  and  C_7
REMARK    7  A    between atoms: C_7  and  C_8
REMARK                            x       y       z     vdW  Elec       q    Type
REMARK                         _______ _______ _______ _____ _____    ______ ____
ROOT
ATOM      1  C   UNL     1      -0.424   0.524   0.263  0.00  0.00    +0.129 C 
ATOM      2  C   UNL     1      -1.417  -0.645   0.227  0.00  0.00    +0.236 C 
ATOM      3  O   UNL     1      -1.284  -1.609   1.028  0.00  0.00    -0.274 OA
ATOM      4  N   UNL     1      -2.548  -0.646  -0.648  0.00  0.00    -0.239 N 
ATOM      5  C   UNL     1      -2.667   0.304  -1.699  0.00  0.00    +0.312 C 
ATOM      6  O   UNL     1      -3.672   0.282  -2.458  0.00  0.00    -0.252 OA
ATOM      7  N   UNL     1      -1.639   1.264  -1.906  0.00  0.00    -0.239 N 
ATOM      8  C   UNL     1      -0.515   1.352  -1.025  0.00  0.00    +0.236 C 
ATOM      9  O   UNL     1       0.371   2.215  -1.275  0.00  0.00    -0.274 OA
ATOM     10  H   UNL     1      -3.273  -1.392  -0.548  0.00  0.00    +0.159 HD
ATOM     11  H   UNL     1      -1.704   1.915  -2.721  0.00  0.00    +0.159 HD
ENDROOT
BRANCH   1  12
ATOM     12  C   UNL     1       1.075   0.001   0.418  0.00  0.00    +0.010 C 
ATOM     13  C   UNL     1       1.472  -0.358   1.866  0.00  0.00    +0.009 C 
BRANCH  12  14
ATOM     14  C   UNL     1       1.452  -1.200  -0.505  0.00  0.00    +0.004 C 
BRANCH  14  16
ATOM     15  C   UNL     1       1.920  -2.043  -2.841  0.00  0.00    +0.004 C 
ATOM     16  C   UNL     1       1.299  -0.924  -2.008  0.00  0.00    -0.003 C 
ENDBRANCH  14  16
ENDBRANCH  12  14
ENDBRANCH   1  12
BRANCH   1  17
ATOM     17  C   UNL     1      -0.837   1.529   1.394  0.00  0.00    +0.052 C 
BRANCH  17  18
ATOM     18  C   UNL     1      -1.202   0.914   2.731  0.00  0.00    -0.033 C 
ATOM     19  C   UNL     1      -0.755   1.402   3.893  0.00  0.00    +0.004 C 
ENDBRANCH  17  18
ENDBRANCH   1  17
TORSDOF 5
