REMARK  Name = 
REMARK  0 active torsions:
REMARK  status: ('A' for Active; 'I' for Inactive)
REMARK                            x       y       z     vdW  Elec       q    Type
REMARK                         _______ _______ _______ _____ _____    ______ ____
ROOT
ATOM      1  S   UNL     1       0.978  -0.063  -0.074  0.00  0.00    +0.000 S 
ATOM      2 SE   UNL     1       2.992  -0.063  -0.074  0.00  0.00    +0.000 Se
ENDROOT
TORSDOF 0
