REMARK  Name = 
REMARK  7 active torsions:
REMARK  status: ('A' for Active; 'I' for Inactive)
REMARK    1  A    between atoms: C_1  and  C_2
REMARK    2  A    between atoms: C_2  and  C_3
REMARK    3  A    between atoms: C_2  and  N_10
REMARK    4  A    between atoms: C_3  and  C_4
REMARK    5  A    between atoms: N_10  and  C_11
REMARK    6  A    between atoms: N_10  and  C_12
REMARK    7  A    between atoms: C_12  and  C_13
REMARK                            x       y       z     vdW  Elec       q    Type
REMARK                         _______ _______ _______ _____ _____    ______ ____
ROOT
ATOM      1  C   UNL     1      -0.627  -1.642  -0.223  0.00  0.00    +0.024 C 
ATOM      2  C   UNL     1      -0.601  -0.124  -0.506  0.00  0.00    +0.058 C 
ENDROOT
BRANCH   2   3
ATOM      3  N   UNL     1      -1.936   0.526  -0.384  0.00  0.00    -0.292 NA
ATOM      4  C   UNL     1      -2.755   0.322  -1.594  0.00  0.00    +0.106 C 
BRANCH   3   5
ATOM      5  C   UNL     1      -2.683   0.154   0.838  0.00  0.00    +0.173 C 
BRANCH   5   6
ATOM      6  C   UNL     1      -3.643   1.209   1.185  0.00  0.00    -0.090 C 
ATOM      7  C   UNL     1      -4.431   2.076   1.469  0.00  0.00    +0.005 C 
ENDBRANCH   5   6
ENDBRANCH   3   5
ENDBRANCH   2   3
BRANCH   2   8
ATOM      8  C   UNL     1       0.423   0.607   0.391  0.00  0.00    +0.053 C 
BRANCH   8   9
ATOM      9  C   UNL     1       1.845   0.237   0.049  0.00  0.00    -0.046 A 
ATOM     10  C   UNL     1       2.485   0.833  -1.051  0.00  0.00    +0.004 A 
ATOM     11  C   UNL     1       3.795   0.474  -1.383  0.00  0.00    +0.000 A 
ATOM     12  C   UNL     1       4.472  -0.485  -0.625  0.00  0.00    +0.000 A 
ATOM     13  C   UNL     1       3.840  -1.087   0.466  0.00  0.00    +0.000 A 
ATOM     14  C   UNL     1       2.531  -0.731   0.803  0.00  0.00    +0.004 A 
ENDBRANCH   8   9
ENDBRANCH   2   8
TORSDOF 5
