REMARK  Name = 
REMARK  6 active torsions:
REMARK  status: ('A' for Active; 'I' for Inactive)
REMARK    1  A    between atoms: C_6  and  C_9
REMARK    2  A    between atoms: C_9  and  C_10
REMARK    3  A    between atoms: C_9  and  O_16
REMARK    4  A    between atoms: C_10  and  N_11
REMARK    5  A    between atoms: O_16  and  C_17
REMARK    6  A    between atoms: C_17  and  C_18
REMARK                            x       y       z     vdW  Elec       q    Type
REMARK                         _______ _______ _______ _____ _____    ______ ____
ROOT
ATOM      1  C   UNL     1      -1.096  -1.019   0.368  0.00  0.00    +0.170 C 
ENDROOT
BRANCH   1   7
ATOM      2 CL   UNL     1      -1.282   4.237  -2.704  0.00  0.00    -0.083 Cl
ATOM      3  C   UNL     1      -1.237   2.717  -1.830  0.00  0.00    +0.042 A 
ATOM      4  C   UNL     1      -1.802   1.570  -2.391  0.00  0.00    +0.040 A 
ATOM      5  C   UNL     1      -1.769   0.351  -1.702  0.00  0.00    +0.048 A 
ATOM      6 CL   UNL     1      -2.516  -1.045  -2.474  0.00  0.00    -0.083 Cl
ATOM      7  C   UNL     1      -1.154   0.276  -0.429  0.00  0.00    +0.001 A 
ATOM      8  C   UNL     1      -0.601   1.446   0.127  0.00  0.00    +0.009 A 
ATOM      9  C   UNL     1      -0.638   2.654  -0.571  0.00  0.00    +0.020 A 
ENDBRANCH   1   7
BRANCH   1  10
ATOM     10  C   UNL     1      -2.070  -0.961   1.555  0.00  0.00    +0.159 C 
BRANCH  10  11
ATOM     11  N   UNL     1      -3.451  -0.821   1.095  0.00  0.00    -0.334 N 
ATOM     12  C   UNL     1      -4.141   0.320   0.941  0.00  0.00    +0.107 A 
ATOM     13  C   UNL     1      -5.371   0.000   0.413  0.00  0.00    +0.130 A 
ATOM     14  N   UNL     1      -5.452  -1.334   0.228  0.00  0.00    -0.244 NA
ATOM     15  C   UNL     1      -4.260  -1.803   0.653  0.00  0.00    +0.199 A 
ENDBRANCH  10  11
ENDBRANCH   1  10
BRANCH   1  16
ATOM     16  O   UNL     1       0.215  -1.212   0.871  0.00  0.00    -0.366 OA
BRANCH  16  17
ATOM     17  C   UNL     1       1.021  -1.885  -0.074  0.00  0.00    +0.197 C 
BRANCH  17  18
ATOM     18  C   UNL     1       2.461  -1.695   0.299  0.00  0.00    -0.007 A 
ATOM     19  C   UNL     1       3.167  -2.623   1.069  0.00  0.00    +0.052 A 
ATOM     20  S   UNL     1       4.720  -2.030   1.361  0.00  0.00    -0.095 S 
ATOM     21  C   UNL     1       4.507  -0.588   0.525  0.00  0.00    +0.038 A 
ATOM     22  C   UNL     1       3.219  -0.545   0.003  0.00  0.00    -0.004 A 
ATOM     23  C   UNL     1       2.802   0.575  -0.729  0.00  0.00    +0.009 A 
ATOM     24  C   UNL     1       3.698   1.639  -0.919  0.00  0.00    +0.002 A 
ATOM     25  C   UNL     1       4.998   1.581  -0.384  0.00  0.00    +0.021 A 
ATOM     26  C   UNL     1       5.415   0.458   0.347  0.00  0.00    +0.055 A 
ATOM     27 CL   UNL     1       7.037   0.390   1.018  0.00  0.00    -0.082 Cl
ENDBRANCH  17  18
ENDBRANCH  16  17
ENDBRANCH   1  16
TORSDOF 6
