REMARK  Name = 
REMARK  5 active torsions:
REMARK  status: ('A' for Active; 'I' for Inactive)
REMARK    1  A    between atoms: C_5  and  N_8
REMARK    2  A    between atoms: C_10  and  C_11
REMARK    3  A    between atoms: N_14  and  C_15
REMARK    4  A    between atoms: C_15  and  C_16
REMARK    5  A    between atoms: C_16  and  N_17
REMARK                            x       y       z     vdW  Elec       q    Type
REMARK                         _______ _______ _______ _____ _____    ______ ____
ROOT
ATOM      1  N   UNL     1      -3.677  -0.320   0.132  0.00  0.00    -0.316 N 
ATOM      2  C   UNL     1      -2.413   0.144  -0.010  0.00  0.00    +0.096 A 
ATOM      3  C   UNL     1      -1.631  -0.776  -0.704  0.00  0.00    -0.019 A 
ATOM      4  C   UNL     1      -2.467  -1.848  -0.972  0.00  0.00    +0.005 A 
ATOM      5  C   UNL     1      -3.702  -1.539  -0.451  0.00  0.00    +0.054 A 
ATOM      6  C   UNL     1      -4.761  -2.452  -0.502  0.00  0.00    +0.028 A 
ATOM      7  C   UNL     1      -4.541  -3.686  -1.137  0.00  0.00    +0.022 A 
ATOM      8  C   UNL     1      -3.279  -3.993  -1.690  0.00  0.00    +0.042 A 
ATOM      9 CL   UNL     1      -3.022  -5.542  -2.472  0.00  0.00    -0.084 Cl
ATOM     10  C   UNL     1      -2.222  -3.070  -1.603  0.00  0.00    +0.030 A 
ENDROOT
BRANCH   1  15
ATOM     11  F   UNL     1      -7.839   2.464   2.644  0.00  0.00    -0.205 F 
ATOM     12  C   UNL     1      -6.834   1.788   2.036  0.00  0.00    +0.124 A 
ATOM     13  C   UNL     1      -7.048   1.183   0.794  0.00  0.00    +0.040 A 
ATOM     14  C   UNL     1      -6.012   0.486   0.165  0.00  0.00    +0.029 A 
ATOM     15  C   UNL     1      -4.754   0.379   0.781  0.00  0.00    +0.047 A 
ATOM     16  C   UNL     1      -4.542   1.004   2.022  0.00  0.00    +0.029 A 
ATOM     17  C   UNL     1      -5.580   1.700   2.648  0.00  0.00    +0.040 A 
ENDBRANCH   1  15
BRANCH   3  18
ATOM     18  C   UNL     1      -0.161  -0.645  -1.034  0.00  0.00    +0.023 C 
ATOM     19  C   UNL     1       0.708  -0.639   0.250  0.00  0.00    +0.023 C 
ATOM     20  C   UNL     1       1.162   0.777   0.641  0.00  0.00    +0.085 C 
ATOM     21  N   UNL     1       1.887   1.468  -0.454  0.00  0.00    -0.301 NA
ATOM     22  C   UNL     1       1.554   1.029  -1.829  0.00  0.00    +0.085 C 
ATOM     23  C   UNL     1       0.092   0.589  -1.928  0.00  0.00    +0.023 C 
BRANCH  21  24
ATOM     24  C   UNL     1       3.338   1.639  -0.225  0.00  0.00    +0.103 C 
BRANCH  24  25
ATOM     25  C   UNL     1       4.111   0.314  -0.073  0.00  0.00    +0.124 C 
BRANCH  25  26
ATOM     26  N   UNL     1       5.531   0.586   0.136  0.00  0.00    -0.283 N 
ATOM     27  C   UNL     1       6.267   0.342   1.371  0.00  0.00    +0.128 C 
ATOM     28  C   UNL     1       7.742   0.708   1.058  0.00  0.00    +0.124 C 
ATOM     29  N   UNL     1       7.768   1.093  -0.348  0.00  0.00    -0.298 N 
ATOM     30  C   UNL     1       6.455   1.003  -0.847  0.00  0.00    +0.302 C 
ATOM     31  O   UNL     1       6.147   1.254  -2.042  0.00  0.00    -0.253 OA
ATOM     32  H   UNL     1       8.611   1.388  -0.888  0.00  0.00    +0.150 HD
ENDBRANCH  25  26
ENDBRANCH  24  25
ENDBRANCH  21  24
ENDBRANCH   3  18
TORSDOF 5
