REMARK  Name = 
REMARK  3 active torsions:
REMARK  status: ('A' for Active; 'I' for Inactive)
REMARK    1  A    between atoms: C_1  and  N_2
REMARK    2  A    between atoms: N_2  and  C_3
REMARK    3  A    between atoms: C_6  and  C_7
REMARK                            x       y       z     vdW  Elec       q    Type
REMARK                         _______ _______ _______ _____ _____    ______ ____
ROOT
ATOM      1  C   UNL     1      -1.986   0.589  -0.027  0.00  0.00    +0.084 C 
ATOM      2  C   UNL     1      -0.926   1.664  -0.368  0.00  0.00    +0.024 C 
ATOM      3  C   UNL     1      -0.182   1.326  -1.657  0.00  0.00    +0.015 C 
ATOM      4  C   UNL     1       0.573  -0.008  -1.537  0.00  0.00    +0.049 C 
ATOM      5  C   UNL     1      -0.314  -1.112  -0.998  0.00  0.00    -0.035 A 
ATOM      6  C   UNL     1       0.072  -2.448  -1.207  0.00  0.00    +0.004 A 
ATOM      7  C   UNL     1      -0.705  -3.497  -0.717  0.00  0.00    +0.000 A 
ATOM      8  C   UNL     1      -1.878  -3.228  -0.015  0.00  0.00    +0.000 A 
ATOM      9  C   UNL     1      -2.272  -1.908   0.210  0.00  0.00    +0.005 A 
ATOM     10  C   UNL     1      -1.487  -0.833  -0.249  0.00  0.00    -0.027 A 
ENDROOT
BRANCH   4  11
ATOM     11  C   UNL     1       1.853   0.148  -0.730  0.00  0.00    -0.038 A 
ATOM     12  C   UNL     1       1.877  -0.019   0.670  0.00  0.00    +0.025 A 
ATOM     13  C   UNL     1       3.062   0.162   1.391  0.00  0.00    +0.060 A 
ATOM     14 CL   UNL     1       3.040  -0.064   3.135  0.00  0.00    -0.082 Cl
ATOM     15  C   UNL     1       4.242   0.521   0.719  0.00  0.00    +0.059 A 
ATOM     16 CL   UNL     1       5.752   0.759   1.588  0.00  0.00    -0.082 Cl
ATOM     17  C   UNL     1       4.222   0.702  -0.667  0.00  0.00    +0.022 A 
ATOM     18  C   UNL     1       3.038   0.522  -1.386  0.00  0.00    +0.006 A 
ENDBRANCH   4  11
BRANCH   1  20
ATOM     19  C   UNL     1      -3.309   1.905   1.554  0.00  0.00    +0.101 C 
ATOM     20  N   UNL     1      -2.455   0.729   1.366  0.00  0.00    -0.312 NA
ATOM     21  H   UNL     1      -1.637   0.798   2.016  0.00  0.00    +0.122 HD
ENDBRANCH   1  20
TORSDOF 2
