REMARK  Name = 
REMARK  3 active torsions:
REMARK  status: ('A' for Active; 'I' for Inactive)
REMARK    1  A    between atoms: N_1  and  C_2
REMARK    2  A    between atoms: C_2  and  C_3
REMARK    3  A    between atoms: C_6  and  C_7
REMARK                            x       y       z     vdW  Elec       q    Type
REMARK                         _______ _______ _______ _____ _____    ______ ____
ROOT
ATOM      1  N   UNL     1      -1.446  -0.387  -0.491  0.00  0.00    -0.327 NA
ATOM      2  H   UNL     1      -2.421  -0.435  -0.118  0.00  0.00    +0.119 HD
ATOM      3  H   UNL     1      -1.087  -1.369  -0.500  0.00  0.00    +0.119 HD
ENDROOT
BRANCH   1   4
ATOM      4  C   UNL     1      -0.647   0.386   0.456  0.00  0.00    +0.104 C 
BRANCH   4   5
ATOM      5  C   UNL     1       0.717   0.660  -0.111  0.00  0.00    -0.020 C 
ATOM      6  C   UNL     1       1.619  -0.313  -0.269  0.00  0.00    +0.005 C 
ENDBRANCH   4   5
ENDBRANCH   1   4
TORSDOF 2
REMARK  Name = 
REMARK  3 active torsions:
REMARK  status: ('A' for Active; 'I' for Inactive)
REMARK    1  A    between atoms: N_1  and  C_2
REMARK    2  A    between atoms: C_2  and  C_3
REMARK    3  A    between atoms: C_6  and  C_7
REMARK                            x       y       z     vdW  Elec       q    Type
REMARK                         _______ _______ _______ _____ _____    ______ ____
ROOT
ATOM      1  C   UNL     1      -0.310  -0.216   0.521  0.00  0.00    +0.158 C 
ATOM      2  C   UNL     1      -1.188   0.481  -0.446  0.00  0.00    +0.193 C 
ATOM      3  O   UNL     1      -0.615   1.153   0.654  0.00  0.00    -0.371 OA
ENDROOT
BRANCH   1   5
ATOM      4 CL   UNL     1       2.061   0.971  -0.362  0.00  0.00    -0.123 Cl
ATOM      5  C   UNL     1       1.123  -0.498   0.047  0.00  0.00    +0.142 C 
ENDBRANCH   1   5
TORSDOF 1
