REMARK  Name = 
REMARK  4 active torsions:
REMARK  status: ('A' for Active; 'I' for Inactive)
REMARK    1  A    between atoms: C_2  and  O_3
REMARK    2  A    between atoms: O_3  and  C_4
REMARK    3  A    between atoms: C_4  and  C_5
REMARK    4  A    between atoms: C_4  and  C_9
REMARK                            x       y       z     vdW  Elec       q    Type
REMARK                         _______ _______ _______ _____ _____    ______ ____
ROOT
ATOM      1  C   UNL     1      -0.287  -0.021  -0.104  0.00  0.00    +0.328 C 
ENDROOT
BRANCH   1   2
ATOM      2  C   UNL     1      -0.999  -1.264   0.456  0.00  0.00    +0.424 C 
ATOM      3  F   UNL     1      -2.246  -1.415  -0.125  0.00  0.00    -0.168 F 
ATOM      4  F   UNL     1      -0.247  -2.390   0.171  0.00  0.00    -0.168 F 
ATOM      5  F   UNL     1      -1.146  -1.168   1.829  0.00  0.00    -0.168 F 
ENDBRANCH   1   2
BRANCH   1   6
ATOM      6  C   UNL     1      -1.076   1.273   0.160  0.00  0.00    +0.424 C 
ATOM      7  F   UNL     1      -2.326   1.211  -0.431  0.00  0.00    -0.168 F 
ATOM      8  F   UNL     1      -0.391   2.346  -0.382  0.00  0.00    -0.168 F 
ATOM      9  F   UNL     1      -1.227   1.487   1.519  0.00  0.00    -0.168 F 
ENDBRANCH   1   6
BRANCH   1  10
ATOM     10  O   UNL     1       0.987   0.090   0.513  0.00  0.00    -0.329 OA
BRANCH  10  12
ATOM     11  F   UNL     1       3.237   0.122   0.203  0.00  0.00    -0.218 F 
ATOM     12  C   UNL     1       2.021   0.010  -0.443  0.00  0.00    +0.376 C 
ENDBRANCH  10  12
ENDBRANCH   1  10
TORSDOF 4
