REMARK  Name = 
REMARK  9 active torsions:
REMARK  status: ('A' for Active; 'I' for Inactive)
REMARK    1  A    between atoms: C_1  and  C_2
REMARK    2  A    between atoms: C_2  and  C_3
REMARK    3  A    between atoms: C_2  and  C_4
REMARK    4  A    between atoms: C_4  and  C_5
REMARK    5  A    between atoms: C_5  and  N_6
REMARK    6  A    between atoms: C_5  and  C_9
REMARK    7  A    between atoms: N_6  and  C_7
REMARK    8  A    between atoms: N_6  and  C_8
REMARK    9  A    between atoms: C_9  and  C_13
REMARK                            x       y       z     vdW  Elec       q    Type
REMARK                         _______ _______ _______ _____ _____    ______ ____
ROOT
ATOM      1  C   UNL     1       0.672  -0.001   0.758  0.00  0.00    +0.011 C 
ATOM      2  C   UNL     1       0.509  -1.086   1.852  0.00  0.00    +0.013 C 
ATOM      3  C   UNL     1       0.256  -0.013   2.900  0.00  0.00    +0.002 C 
ATOM      4  C   UNL     1       0.477   1.069   1.855  0.00  0.00    +0.013 C 
ENDROOT
BRANCH   1   5
ATOM      5  C   UNL     1       2.088   0.084   0.168  0.00  0.00    -0.040 A 
ATOM      6  C   UNL     1       2.849  -1.076  -0.092  0.00  0.00    +0.005 A 
ATOM      7  C   UNL     1       4.101  -0.985  -0.707  0.00  0.00    +0.020 A 
ATOM      8  C   UNL     1       4.600   0.258  -1.102  0.00  0.00    +0.041 A 
ATOM      9 CL   UNL     1       6.168   0.368  -1.880  0.00  0.00    -0.084 Cl
ATOM     10  C   UNL     1       3.837   1.410  -0.899  0.00  0.00    +0.020 A 
ATOM     11  C   UNL     1       2.585   1.323  -0.285  0.00  0.00    +0.005 A 
ENDBRANCH   1   5
BRANCH   1  12
ATOM     12  C   UNL     1      -0.416   0.036  -0.396  0.00  0.00    +0.067 C 
BRANCH  12  13
ATOM     13  N   UNL     1       0.096  -0.729  -1.572  0.00  0.00    -0.305 NA
ATOM     14  C   UNL     1      -0.333  -0.169  -2.865  0.00  0.00    +0.104 C 
ATOM     15  C   UNL     1      -0.143  -2.182  -1.518  0.00  0.00    +0.104 C 
ENDBRANCH  12  13
BRANCH  12  16
ATOM     16  C   UNL     1      -1.901  -0.367  -0.057  0.00  0.00    +0.022 C 
BRANCH  16  18
ATOM     17  C   UNL     1      -2.909   1.989   0.100  0.00  0.00    +0.007 C 
ATOM     18  C   UNL     1      -2.753   0.619   0.781  0.00  0.00    -0.016 C 
ATOM     19  C   UNL     1      -4.143   0.013   1.028  0.00  0.00    +0.007 C 
ENDBRANCH  16  18
ENDBRANCH  12  16
ENDBRANCH   1  12
TORSDOF 5
