REMARK  Name = 
REMARK  11 active torsions:
REMARK  status: ('A' for Active; 'I' for Inactive)
REMARK    1  A    between atoms: C_1  and  C_2
REMARK    2  A    between atoms: C_2  and  C_3
REMARK    3  A    between atoms: C_3  and  C_4
REMARK    4  A    between atoms: N_6  and  C_7
REMARK    5  A    between atoms: C_11  and  C_15
REMARK    6  A    between atoms: C_16  and  O_17
REMARK    7  A    between atoms: O_17  and  C_18
REMARK    8  A    between atoms: C_18  and  C_19
REMARK    9  A    between atoms: C_22  and  S_24
REMARK   10  A    between atoms: S_24  and  N_27
REMARK   11  A    between atoms: N_30  and  C_31
REMARK                            x       y       z     vdW  Elec       q    Type
REMARK                         _______ _______ _______ _____ _____    ______ ____
ROOT
ATOM      1  C   UNL     1       0.050   0.591   0.132  0.00  0.00    +0.061 A 
ATOM      2  C   UNL     1       0.128   1.388  -1.031  0.00  0.00    +0.131 A 
ATOM      3  C   UNL     1      -0.962   2.211  -1.374  0.00  0.00    +0.048 A 
ATOM      4  C   UNL     1      -2.118   2.218  -0.591  0.00  0.00    +0.032 A 
ATOM      5  C   UNL     1      -2.209   1.405   0.543  0.00  0.00    +0.106 A 
ATOM      6  C   UNL     1      -1.125   0.595   0.901  0.00  0.00    +0.043 A 
ENDROOT
BRANCH   1  14
ATOM      7  C   UNL     1       4.835  -0.432   0.925  0.00  0.00    +0.087 A 
ATOM      8  N   UNL     1       5.407  -1.589   1.344  0.00  0.00    -0.174 NA
ATOM      9  N   UNL     1       4.436  -2.468   1.582  0.00  0.00    -0.260 N 
ATOM     10  C   UNL     1       4.669  -3.833   2.038  0.00  0.00    +0.173 C 
ATOM     11  C   UNL     1       3.251  -1.887   1.307  0.00  0.00    +0.151 A 
ATOM     12  C   UNL     1       3.470  -0.616   0.893  0.00  0.00    +0.095 A 
ATOM     13  N   UNL     1       2.468   0.216   0.520  0.00  0.00    -0.336 N 
ATOM     14  C   UNL     1       1.182  -0.263   0.552  0.00  0.00    +0.146 A 
ATOM     15  N   UNL     1       0.938  -1.544   0.985  0.00  0.00    -0.189 NA
ATOM     16  C   UNL     1       1.950  -2.378   1.366  0.00  0.00    +0.299 A 
ATOM     17  O   UNL     1       1.700  -3.550   1.752  0.00  0.00    -0.263 OA
ATOM     18  H   UNL     1       2.678   1.200   0.240  0.00  0.00    +0.167 HD
BRANCH   7  19
ATOM     19  C   UNL     1       5.596   0.788   0.501  0.00  0.00    +0.059 C 
BRANCH  19  21
ATOM     20  C   UNL     1       6.397  -0.153  -1.724  0.00  0.00    +0.004 C 
ATOM     21  C   UNL     1       5.610   0.955  -1.025  0.00  0.00    +0.003 C 
ENDBRANCH  19  21
ENDBRANCH   7  19
ENDBRANCH   1  14
BRANCH   5  22
ATOM     22  S   UNL     1      -3.688   1.392   1.507  0.00  0.00    +0.061 S 
ATOM     23  O   UNL     1      -3.350   1.060   2.934  0.00  0.00    -0.153 OA
ATOM     24  O   UNL     1      -4.306   2.762   1.481  0.00  0.00    -0.153 OA
BRANCH  22  25
ATOM     25  N   UNL     1      -4.841   0.230   0.896  0.00  0.00    -0.174 NA
ATOM     26  C   UNL     1      -4.357  -1.145   1.122  0.00  0.00    +0.125 C 
ATOM     27  C   UNL     1      -5.108  -2.179   0.252  0.00  0.00    +0.101 C 
ATOM     28  N   UNL     1      -6.410  -1.677  -0.232  0.00  0.00    -0.303 NA
ATOM     29  C   UNL     1      -7.399  -1.575   0.855  0.00  0.00    +0.105 C 
ATOM     30  C   UNL     1      -6.280  -0.412  -0.996  0.00  0.00    +0.101 C 
ATOM     31  C   UNL     1      -5.102   0.465  -0.529  0.00  0.00    +0.125 C 
ENDBRANCH  22  25
ENDBRANCH   5  22
BRANCH   2  32
ATOM     32  O   UNL     1       1.282   1.308  -1.833  0.00  0.00    -0.492 OA
BRANCH  32  33
ATOM     33  C   UNL     1       1.610   2.174  -2.918  0.00  0.00    +0.226 C 
ATOM     34  C   UNL     1       2.043   3.542  -2.403  0.00  0.00    +0.048 C 
ENDBRANCH  32  33
ENDBRANCH   2  32
TORSDOF 7
