REMARK  Name = 
REMARK  16 active torsions:
REMARK  status: ('A' for Active; 'I' for Inactive)
REMARK    1  A    between atoms: C_1  and  C_2
REMARK    2  A    between atoms: C_2  and  C_3
REMARK    3  A    between atoms: C_2  and  N_20
REMARK    4  A    between atoms: C_3  and  C_4
REMARK    5  A    between atoms: N_8  and  C_9
REMARK    6  A    between atoms: C_9  and  C_10
REMARK    7  A    between atoms: C_10  and  C_11
REMARK    8  A    between atoms: C_11  and  O_12
REMARK    9  A    between atoms: C_15  and  C_17
REMARK   10  A    between atoms: N_20  and  C_21
REMARK   11  A    between atoms: C_21  and  C_22
REMARK   12  A    between atoms: C_22  and  O_23
REMARK   13  A    between atoms: O_23  and  C_24
REMARK   14  A    between atoms: C_29  and  O_30
REMARK   15  A    between atoms: O_30  and  C_31
REMARK   16  A    between atoms: C_31  and  C_32
REMARK                            x       y       z     vdW  Elec       q    Type
REMARK                         _______ _______ _______ _____ _____    ______ ____
ROOT
ATOM      1  C   UNL     1      -0.266  -0.542  -0.928  0.00  0.00    +0.053 C 
ENDROOT
BRANCH   1   2
ATOM      2  C   UNL     1      -1.705  -0.372  -0.473  0.00  0.00    -0.045 A 
ATOM      3  C   UNL     1      -2.015   0.183   0.787  0.00  0.00    +0.009 A 
ATOM      4  C   UNL     1      -3.351   0.285   1.170  0.00  0.00    -0.024 A 
ATOM      5  C   UNL     1      -4.374  -0.129   0.359  0.00  0.00    +0.045 A 
ATOM      6  N   UNL     1      -5.647   0.150   0.945  0.00  0.00    -0.329 N 
ATOM      7  C   UNL     1      -5.389   0.600   2.322  0.00  0.00    +0.110 C 
ATOM      8  C   UNL     1      -3.875   0.870   2.426  0.00  0.00    +0.056 C 
ATOM      9  C   UNL     1      -4.100  -0.761  -0.875  0.00  0.00    +0.058 A 
ATOM     10  C   UNL     1      -2.754  -0.852  -1.288  0.00  0.00    +0.018 A 
BRANCH   9  11
ATOM     11  C   UNL     1      -5.138  -1.438  -1.671  0.00  0.00    +0.243 C 
ATOM     12  N   UNL     1      -5.148  -1.332  -3.098  0.00  0.00    -0.325 N 
ATOM     13  O   UNL     1      -5.983  -2.177  -1.102  0.00  0.00    -0.270 OA
ATOM     14  H   UNL     1      -5.834  -1.891  -3.653  0.00  0.00    +0.145 HD
ATOM     15  H   UNL     1      -4.593  -0.588  -3.585  0.00  0.00    +0.145 HD
ENDBRANCH   9  11
BRANCH   6  16
ATOM     16  C   UNL     1      -6.765   0.719   0.176  0.00  0.00    +0.107 C 
BRANCH  16  17
ATOM     17  C   UNL     1      -8.124   0.455   0.846  0.00  0.00    +0.047 C 
BRANCH  17  18
ATOM     18  C   UNL     1      -8.475  -1.036   0.941  0.00  0.00    +0.157 C 
BRANCH  18  19
ATOM     19  O   UNL     1      -7.728  -1.654   1.958  0.00  0.00    -0.395 OA
ATOM     20  H   UNL     1      -7.069  -2.256   1.519  0.00  0.00    +0.209 HD
ENDBRANCH  18  19
ENDBRANCH  17  18
ENDBRANCH  16  17
ENDBRANCH   6  16
ENDBRANCH   1   2
BRANCH   1  22
ATOM     21  C   UNL     1      -0.171   2.044  -1.155  0.00  0.00    +0.024 C 
ATOM     22  C   UNL     1       0.617   0.746  -0.940  0.00  0.00    +0.055 C 
BRANCH  22  23
ATOM     23  N   UNL     1       1.437   0.869   0.287  0.00  0.00    -0.310 NA
ATOM     24  H   UNL     1       0.944   0.433   1.102  0.00  0.00    +0.122 HD
BRANCH  23  25
ATOM     25  C   UNL     1       2.758   0.236   0.152  0.00  0.00    +0.122 C 
BRANCH  25  26
ATOM     26  C   UNL     1       3.801   1.304  -0.193  0.00  0.00    +0.244 C 
BRANCH  26  27
ATOM     27  O   UNL     1       5.080   0.715  -0.429  0.00  0.00    -0.487 OA
BRANCH  27  28
ATOM     28  C   UNL     1       5.927   0.173   0.555  0.00  0.00    +0.162 A 
ATOM     29  C   UNL     1       5.661   0.291   1.936  0.00  0.00    +0.049 A 
ATOM     30  C   UNL     1       6.532  -0.266   2.874  0.00  0.00    +0.004 A 
ATOM     31  C   UNL     1       7.678  -0.936   2.451  0.00  0.00    +0.004 A 
ATOM     32  C   UNL     1       7.965  -1.047   1.087  0.00  0.00    +0.049 A 
ATOM     33  C   UNL     1       7.088  -0.493   0.130  0.00  0.00    +0.162 A 
BRANCH  33  34
ATOM     34  O   UNL     1       7.317  -0.594  -1.254  0.00  0.00    -0.479 OA
BRANCH  34  35
ATOM     35  C   UNL     1       8.548  -0.965  -1.880  0.00  0.00    +0.342 C 
BRANCH  35  36
ATOM     36  C   UNL     1       9.538   0.198  -1.874  0.00  0.00    +0.424 C 
ATOM     37  F   UNL     1       8.953   1.306  -2.463  0.00  0.00    -0.167 F 
ATOM     38  F   UNL     1       9.911   0.518  -0.583  0.00  0.00    -0.167 F 
ATOM     39  F   UNL     1      10.667  -0.152  -2.598  0.00  0.00    -0.167 F 
ENDBRANCH  35  36
ENDBRANCH  34  35
ENDBRANCH  33  34
ENDBRANCH  27  28
ENDBRANCH  26  27
ENDBRANCH  25  26
ENDBRANCH  23  25
ENDBRANCH  22  23
ENDBRANCH   1  22
TORSDOF 15
