REMARK  Name = 
REMARK  13 active torsions:
REMARK  status: ('A' for Active; 'I' for Inactive)
REMARK    1  A    between atoms: C_2  and  O_23
REMARK    2  A    between atoms: C_4  and  C_5
REMARK    3  A    between atoms: C_10  and  C_11
REMARK    4  A    between atoms: C_12  and  C_13
REMARK    5  A    between atoms: C_13  and  C_14
REMARK    6  A    between atoms: C_14  and  C_15
REMARK    7  A    between atoms: C_17  and  O_18
REMARK    8  A    between atoms: O_23  and  C_24
REMARK    9  A    between atoms: C_24  and  C_26
REMARK   10  A    between atoms: C_26  and  C_27
REMARK   11  A    between atoms: C_26  and  C_28
REMARK   12  A    between atoms: C_26  and  C_29
REMARK   13  A    between atoms: C_29  and  C_30
REMARK                            x       y       z     vdW  Elec       q    Type
REMARK                         _______ _______ _______ _____ _____    ______ ____
ROOT
ATOM      1  C   UNL     1       0.346  -2.218  -1.195  0.00  0.00    +0.063 C 
ATOM      2  C   UNL     1       1.687  -1.760  -0.551  0.00  0.00    +0.185 C 
ATOM      3  C   UNL     1       1.730  -2.161   0.926  0.00  0.00    +0.052 C 
ATOM      4  C   UNL     1       1.732  -3.697   1.025  0.00  0.00    +0.012 C 
ATOM      5  C   UNL     1       1.576  -4.137   2.483  0.00  0.00    +0.012 C 
ATOM      6  C   UNL     1       0.651  -4.317   0.168  0.00  0.00    -0.020 C 
ATOM      7  C   UNL     1       0.053  -3.672  -0.852  0.00  0.00    -0.044 C 
ATOM      8  C   UNL     1      -1.155  -4.269  -1.445  0.00  0.00    -0.000 C 
ATOM      9  C   UNL     1      -2.177  -3.496  -1.828  0.00  0.00    -0.023 C 
ATOM     10  C   UNL     1      -2.125  -1.979  -1.798  0.00  0.00    +0.012 C 
ATOM     11  C   UNL     1      -2.055  -1.475  -3.253  0.00  0.00    +0.012 C 
ATOM     12  C   UNL     1      -0.974  -1.434  -0.873  0.00  0.00    +0.007 C 
ENDROOT
BRANCH  12  13
ATOM     13  C   UNL     1      -0.843   0.114  -0.904  0.00  0.00    +0.008 C 
BRANCH  13  14
ATOM     14  C   UNL     1      -2.146   0.906  -0.661  0.00  0.00    +0.045 C 
BRANCH  14  15
ATOM     15  C   UNL     1      -2.722   0.718   0.760  0.00  0.00    +0.179 C 
ATOM     16  C   UNL     1      -4.048   1.482   0.952  0.00  0.00    +0.076 C 
ATOM     17  C   UNL     1      -3.818   2.997   1.103  0.00  0.00    +0.129 C 
ATOM     18  C   UNL     1      -2.894   3.288   2.290  0.00  0.00    +0.152 C 
ATOM     19  C   UNL     1      -1.690   2.392   2.289  0.00  0.00    +0.310 C 
ATOM     20  O   UNL     1      -0.642   2.757   2.882  0.00  0.00    -0.251 OA
ATOM     21  O   UNL     1      -1.752   1.109   1.736  0.00  0.00    -0.461 OA
BRANCH  17  22
ATOM     22  O   UNL     1      -5.045   3.646   1.311  0.00  0.00    -0.391 OA
ATOM     23  H   UNL     1      -5.519   3.651   0.439  0.00  0.00    +0.210 HD
ENDBRANCH  17  22
ENDBRANCH  14  15
ENDBRANCH  13  14
ENDBRANCH  12  13
BRANCH   2  24
ATOM     24  O   UNL     1       1.923  -0.365  -0.724  0.00  0.00    -0.460 OA
BRANCH  24  25
ATOM     25  C   UNL     1       3.161   0.252  -0.503  0.00  0.00    +0.313 C 
ATOM     26  O   UNL     1       4.190  -0.451  -0.297  0.00  0.00    -0.250 OA
BRANCH  25  27
ATOM     27  C   UNL     1       3.233   1.767  -0.426  0.00  0.00    +0.062 C 
ATOM     28  C   UNL     1       4.691   2.238  -0.636  0.00  0.00    +0.022 C 
ATOM     29  C   UNL     1       2.352   2.364  -1.545  0.00  0.00    +0.022 C 
BRANCH  27  30
ATOM     30  C   UNL     1       2.709   2.181   0.980  0.00  0.00    +0.014 C 
ATOM     31  C   UNL     1       2.653   3.690   1.238  0.00  0.00    +0.005 C 
ENDBRANCH  27  30
ENDBRANCH  25  27
ENDBRANCH  24  25
ENDBRANCH   2  24
TORSDOF 8
