REMARK  Name = 
REMARK  19 active torsions:
REMARK  status: ('A' for Active; 'I' for Inactive)
REMARK    1  A    between atoms: C_1  and  C_2
REMARK    2  A    between atoms: C_2  and  C_3
REMARK    3  A    between atoms: C_3  and  C_4
REMARK    4  A    between atoms: C_3  and  C_5
REMARK    5  A    between atoms: C_9  and  C_10
REMARK    6  A    between atoms: C_12  and  C_13
REMARK    7  A    between atoms: C_14  and  O_15
REMARK    8  A    between atoms: C_16  and  O_17
REMARK    9  A    between atoms: O_17  and  C_18
REMARK   10  A    between atoms: C_21  and  C_22
REMARK   11  A    between atoms: C_24  and  C_25
REMARK   12  A    between atoms: C_31  and  C_32
REMARK   13  A    between atoms: C_33  and  O_56
REMARK   14  A    between atoms: C_38  and  C_39
REMARK   15  A    between atoms: C_40  and  O_41
REMARK   16  A    between atoms: O_56  and  C_57
REMARK   17  A    between atoms: C_60  and  O_61
REMARK   18  A    between atoms: C_62  and  O_64
REMARK   19  A    between atoms: O_64  and  C_65
REMARK                            x       y       z     vdW  Elec       q    Type
REMARK                         _______ _______ _______ _____ _____    ______ ____
ROOT
ATOM      1  C   UNL     1       2.787   0.590  -1.165  0.00  0.00    +0.186 C 
ATOM      2  C   UNL     1       2.643   2.016  -0.579  0.00  0.00    +0.119 C 
ATOM      3  C   UNL     1       1.280   2.623  -0.838  0.00  0.00    +0.143 C 
ATOM      4  O   UNL     1       0.508   2.728   0.104  0.00  0.00    -0.297 OA
ATOM      5  C   UNL     1       0.821   3.074  -2.223  0.00  0.00    +0.075 C 
ATOM      6  C   UNL     1       1.938   3.246  -3.276  0.00  0.00    +0.020 C 
ATOM      7  C   UNL     1      -0.087   4.298  -2.158  0.00  0.00    -0.015 C 
ATOM      8  C   UNL     1       0.285   5.586  -1.896  0.00  0.00    -0.045 C 
ATOM      9  C   UNL     1       1.716   5.933  -1.545  0.00  0.00    +0.041 C 
ATOM     10  C   UNL     1      -0.701   6.744  -2.122  0.00  0.00    +0.176 C 
ATOM     11  C   UNL     1      -0.935   7.640  -0.879  0.00  0.00    +0.216 C 
ATOM     12  C   UNL     1      -1.316   6.829   0.341  0.00  0.00    +0.167 C 
ATOM     13  O   UNL     1      -0.434   6.474   1.111  0.00  0.00    -0.294 OA
ATOM     14  C   UNL     1      -2.764   6.503   0.669  0.00  0.00    +0.055 C 
ATOM     15  C   UNL     1      -3.294   7.540   1.669  0.00  0.00    +0.015 C 
ATOM     16  C   UNL     1      -2.876   5.048   1.192  0.00  0.00    +0.018 C 
ATOM     17  C   UNL     1      -4.326   4.587   1.528  0.00  0.00    +0.009 C 
ATOM     18  C   UNL     1      -4.644   4.725   3.027  0.00  0.00    +0.012 C 
ATOM     19  C   UNL     1      -4.559   3.154   1.103  0.00  0.00    -0.024 C 
ATOM     20  C   UNL     1      -3.725   2.162   1.453  0.00  0.00    -0.004 C 
ATOM     21  C   UNL     1      -3.876   0.779   0.968  0.00  0.00    -0.000 C 
ATOM     22  C   UNL     1      -5.059   0.180   0.819  0.00  0.00    +0.000 C 
ATOM     23  C   UNL     1      -5.121  -1.212   0.338  0.00  0.00    +0.001 C 
ATOM     24  C   UNL     1      -6.119  -2.073   0.637  0.00  0.00    -0.044 C 
ATOM     25  C   UNL     1      -7.314  -1.614   1.442  0.00  0.00    +0.042 C 
ATOM     26  C   UNL     1      -6.096  -3.520   0.156  0.00  0.00    +0.146 C 
ATOM     27  C   UNL     1      -4.663  -4.100   0.042  0.00  0.00    +0.067 C 
ATOM     28  C   UNL     1      -4.619  -5.638  -0.113  0.00  0.00    +0.125 C 
ATOM     29  C   UNL     1      -4.796  -6.400   1.219  0.00  0.00    +0.032 C 
ATOM     30  C   UNL     1      -3.504  -6.441   2.023  0.00  0.00    +0.011 C 
ATOM     31  C   UNL     1      -2.343  -6.940   1.149  0.00  0.00    +0.054 C 
ATOM     32  C   UNL     1      -2.471  -8.455   0.887  0.00  0.00    +0.013 C 
ATOM     33  C   UNL     1      -2.241  -6.117  -0.180  0.00  0.00    +0.240 C 
ATOM     34  O   UNL     1      -3.493  -6.070  -0.872  0.00  0.00    -0.339 OA
ATOM     35  C   UNL     1      -1.664  -4.720   0.044  0.00  0.00    +0.276 C 
ATOM     36  O   UNL     1      -1.393  -4.320   1.207  0.00  0.00    -0.281 OA
ATOM     37  C   UNL     1      -1.265  -3.881  -1.103  0.00  0.00    +0.288 C 
ATOM     38  O   UNL     1      -2.025  -3.772  -2.097  0.00  0.00    -0.267 OA
ATOM     39  N   UNL     1       0.050  -3.315  -1.164  0.00  0.00    -0.282 N 
ATOM     40  C   UNL     1       1.002  -3.959  -2.079  0.00  0.00    +0.109 C 
ATOM     41  C   UNL     1       2.453  -3.752  -1.625  0.00  0.00    +0.019 C 
ATOM     42  C   UNL     1       2.564  -3.929  -0.107  0.00  0.00    +0.004 C 
ATOM     43  C   UNL     1       1.638  -2.978   0.693  0.00  0.00    +0.034 C 
ATOM     44  C   UNL     1       0.507  -2.342  -0.157  0.00  0.00    +0.185 C 
ATOM     45  C   UNL     1       0.931  -1.061  -0.834  0.00  0.00    +0.328 C 
ATOM     46  O   UNL     1       0.246  -0.618  -1.798  0.00  0.00    -0.249 OA
ATOM     47  O   UNL     1       2.046  -0.347  -0.374  0.00  0.00    -0.459 OA
ENDROOT
BRANCH   1  48
ATOM     48  C   UNL     1       4.266   0.107  -1.242  0.00  0.00    +0.027 C 
ATOM     49  C   UNL     1       5.085   0.927  -2.258  0.00  0.00    +0.011 C 
BRANCH  48  50
ATOM     50  C   UNL     1       4.940   0.060   0.156  0.00  0.00    +0.010 C 
BRANCH  50  51
ATOM     51  C   UNL     1       6.362  -0.563   0.188  0.00  0.00    -0.008 C 
ATOM     52  C   UNL     1       6.369  -2.033  -0.284  0.00  0.00    +0.006 C 
ATOM     53  C   UNL     1       7.761  -2.662  -0.154  0.00  0.00    +0.034 C 
ATOM     54  C   UNL     1       8.273  -2.578   1.287  0.00  0.00    +0.143 C 
ATOM     55  C   UNL     1       8.320  -1.107   1.752  0.00  0.00    +0.147 C 
ATOM     56  C   UNL     1       6.926  -0.466   1.624  0.00  0.00    +0.037 C 
BRANCH  54  57
ATOM     57  O   UNL     1       9.555  -3.142   1.344  0.00  0.00    -0.389 OA
ATOM     58  H   UNL     1       9.717  -3.399   2.288  0.00  0.00    +0.210 HD
ENDBRANCH  54  57
BRANCH  55  59
ATOM     59  O   UNL     1       8.722  -1.081   3.113  0.00  0.00    -0.377 OA
ATOM     60  C   UNL     1       9.623  -0.021   3.349  0.00  0.00    +0.194 C 
ENDBRANCH  55  59
ENDBRANCH  50  51
ENDBRANCH  48  50
ENDBRANCH   1  48
BRANCH  10  61
ATOM     61  O   UNL     1      -1.946   6.286  -2.596  0.00  0.00    -0.384 OA
ATOM     62  H   UNL     1      -1.874   6.216  -3.582  0.00  0.00    +0.210 HD
ENDBRANCH  10  61
BRANCH  11  63
ATOM     63  O   UNL     1      -1.972   8.571  -1.164  0.00  0.00    -0.369 OA
ATOM     64  C   UNL     1      -1.443   9.840  -1.483  0.00  0.00    +0.195 C 
ENDBRANCH  11  63
BRANCH  33  65
ATOM     65  O   UNL     1      -1.314  -6.795  -0.996  0.00  0.00    -0.358 OA
ATOM     66  H   UNL     1      -1.446  -6.488  -1.932  0.00  0.00    +0.213 HD
ENDBRANCH  33  65
BRANCH  26  67
ATOM     67  O   UNL     1      -6.725  -3.583  -1.118  0.00  0.00    -0.375 OA
ATOM     68  C   UNL     1      -7.956  -4.282  -1.039  0.00  0.00    +0.194 C 
ENDBRANCH  26  67
TORSDOF 9
