REMARK  Name = 
REMARK  6 active torsions:
REMARK  status: ('A' for Active; 'I' for Inactive)
REMARK    1  A    between atoms: N_1  and  C_2
REMARK    2  A    between atoms: C_2  and  C_3
REMARK    3  A    between atoms: C_2  and  C_19
REMARK    4  A    between atoms: C_3  and  C_4
REMARK    5  A    between atoms: C_14  and  C_15
REMARK    6  A    between atoms: C_19  and  C_20
REMARK                            x       y       z     vdW  Elec       q    Type
REMARK                         _______ _______ _______ _____ _____    ______ ____
ROOT
ATOM      1  C   UNL     1       0.421   0.939  -1.853  0.00  0.00    +0.114 C 
ENDROOT
BRANCH   1   2
ATOM      2  C   UNL     1      -0.302   1.845  -0.889  0.00  0.00    +0.217 C 
ATOM      3  O   UNL     1       0.259   2.904  -0.495  0.00  0.00    -0.276 OA
ATOM      4  N   UNL     1      -1.612   1.510  -0.401  0.00  0.00    -0.292 N 
ATOM      5  C   UNL     1      -2.677   1.107  -1.338  0.00  0.00    +0.130 C 
ATOM      6  C   UNL     1      -3.476  -0.068  -0.758  0.00  0.00    +0.144 C 
ATOM      7  N   UNL     1      -3.782   0.190   0.647  0.00  0.00    -0.305 N 
ATOM      8  C   UNL     1      -3.093   1.004   1.460  0.00  0.00    +0.151 A 
ATOM      9  C   UNL     1      -1.971   1.871   0.979  0.00  0.00    +0.184 C 
ATOM     10  N   UNL     1      -3.559   0.959   2.722  0.00  0.00    -0.132 NA
ATOM     11  N   UNL     1      -4.553   0.077   2.728  0.00  0.00    -0.125 NA
ATOM     12  C   UNL     1      -4.674  -0.395   1.468  0.00  0.00    +0.238 A 
BRANCH  12  13
ATOM     13  C   UNL     1      -5.678  -1.426   1.052  0.00  0.00    +0.452 C 
ATOM     14  F   UNL     1      -6.569  -0.869   0.154  0.00  0.00    -0.163 F 
ATOM     15  F   UNL     1      -5.030  -2.491   0.456  0.00  0.00    -0.163 F 
ATOM     16  F   UNL     1      -6.377  -1.884   2.155  0.00  0.00    -0.163 F 
ENDBRANCH  12  13
ENDBRANCH   1   2
BRANCH   1  17
ATOM     17  C   UNL     1       1.853   0.602  -1.377  0.00  0.00    +0.064 C 
BRANCH  17  18
ATOM     18  N   UNL     1       2.580  -0.124  -2.423  0.00  0.00    -0.327 NA
ATOM     19  H   UNL     1       2.680   0.497  -3.260  0.00  0.00    +0.118 HD
ATOM     20  H   UNL     1       2.026  -0.961  -2.717  0.00  0.00    +0.118 HD
ENDBRANCH  17  18
BRANCH  17  21
ATOM     21  C   UNL     1       1.835  -0.232  -0.078  0.00  0.00    +0.057 C 
BRANCH  21  22
ATOM     22  C   UNL     1       3.232  -0.464   0.443  0.00  0.00    -0.008 A 
ATOM     23  C   UNL     1       3.911  -1.656   0.134  0.00  0.00    +0.047 A 
ATOM     24  C   UNL     1       5.220  -1.861   0.584  0.00  0.00    +0.159 A 
ATOM     25  F   UNL     1       5.866  -3.013   0.281  0.00  0.00    -0.202 F 
ATOM     26  C   UNL     1       5.865  -0.874   1.338  0.00  0.00    +0.161 A 
ATOM     27  F   UNL     1       7.137  -1.069   1.769  0.00  0.00    -0.202 F 
ATOM     28  C   UNL     1       5.199   0.317   1.644  0.00  0.00    +0.080 A 
ATOM     29  C   UNL     1       3.888   0.526   1.200  0.00  0.00    +0.129 A 
ATOM     30  F   UNL     1       3.263   1.692   1.500  0.00  0.00    -0.205 F 
ENDBRANCH  21  22
ENDBRANCH  17  21
ENDBRANCH   1  17
TORSDOF 6
