REMARK  Name = 
REMARK  8 active torsions:
REMARK  status: ('A' for Active; 'I' for Inactive)
REMARK    1  A    between atoms: C_1  and  C_2
REMARK    2  A    between atoms: C_5  and  N_6
REMARK    3  A    between atoms: N_6  and  S_7
REMARK    4  A    between atoms: S_7  and  C_10
REMARK    5  A    between atoms: C_11  and  C_15
REMARK    6  A    between atoms: C_15  and  C_17
REMARK    7  A    between atoms: C_17  and  C_18
REMARK    8  A    between atoms: C_26  and  C_27
REMARK                            x       y       z     vdW  Elec       q    Type
REMARK                         _______ _______ _______ _____ _____    ______ ____
ROOT
ATOM      1  C   UNL     1       1.268  -0.743  -0.905  0.00  0.00    +0.126 A 
ATOM      2  C   UNL     1       0.099  -1.516  -0.895  0.00  0.00    +0.081 A 
ATOM      3  S   UNL     1       0.071  -2.417  -2.319  0.00  0.00    -0.092 S 
ATOM      4  C   UNL     1       1.516  -1.849  -2.953  0.00  0.00    +0.048 A 
ATOM      5  C   UNL     1       2.048  -0.934  -2.057  0.00  0.00    +0.037 A 
ENDROOT
BRANCH   1   6
ATOM      6  S   UNL     1       1.712   0.422   0.342  0.00  0.00    +0.076 S 
ATOM      7  O   UNL     1       0.571   1.374   0.564  0.00  0.00    -0.150 OA
ATOM      8  O   UNL     1       2.021  -0.290   1.629  0.00  0.00    -0.150 OA
BRANCH   6   9
ATOM      9  N   UNL     1       3.100   1.334  -0.150  0.00  0.00    -0.182 N 
ATOM     10  H   UNL     1       2.962   2.307  -0.503  0.00  0.00    +0.177 HD
BRANCH   9  15
ATOM     11  C   UNL     1       8.010   0.588  -0.504  0.00  0.00    +0.071 C 
ATOM     12  C   UNL     1       6.550   0.452  -0.225  0.00  0.00    +0.101 A 
ATOM     13  N   UNL     1       5.972  -0.672   0.247  0.00  0.00    -0.080 NA
ATOM     14  O   UNL     1       4.692  -0.440   0.319  0.00  0.00    -0.336 OA
ATOM     15  C   UNL     1       4.414   0.776  -0.091  0.00  0.00    +0.255 A 
ATOM     16  C   UNL     1       5.580   1.404  -0.463  0.00  0.00    +0.126 A 
ATOM     17 CL   UNL     1       5.782   3.021  -1.112  0.00  0.00    -0.076 Cl
ENDBRANCH   9  15
ENDBRANCH   6   9
ENDBRANCH   1   6
BRANCH   2  18
ATOM     18  C   UNL     1      -0.949  -1.559   0.151  0.00  0.00    +0.176 C 
ATOM     19  O   UNL     1      -0.678  -1.196   1.327  0.00  0.00    -0.291 OA
BRANCH  18  20
ATOM     20  C   UNL     1      -2.340  -2.050  -0.145  0.00  0.00    +0.115 C 
BRANCH  20  21
ATOM     21  C   UNL     1      -3.354  -0.967   0.140  0.00  0.00    -0.033 A 
ATOM     22  C   UNL     1      -4.010  -0.970   1.394  0.00  0.00    +0.054 A 
ATOM     23  C   UNL     1      -4.919   0.044   1.666  0.00  0.00    +0.167 A 
ATOM     24  C   UNL     1      -5.186   1.028   0.776  0.00  0.00    +0.166 A 
ATOM     25  O   UNL     1      -6.121   1.893   1.312  0.00  0.00    -0.453 OA
ATOM     26  C   UNL     1      -6.461   1.422   2.623  0.00  0.00    +0.466 C 
ATOM     27  O   UNL     1      -5.670   0.239   2.809  0.00  0.00    -0.453 OA
ATOM     28  C   UNL     1      -4.566   1.087  -0.465  0.00  0.00    +0.053 A 
ATOM     29  C   UNL     1      -3.630   0.081  -0.798  0.00  0.00    -0.043 A 
ATOM     30  C   UNL     1      -2.938   0.145  -2.134  0.00  0.00    +0.044 C 
ENDBRANCH  20  21
ENDBRANCH  18  20
ENDBRANCH   2  18
TORSDOF 6
