REMARK  Name = 
REMARK  13 active torsions:
REMARK  status: ('A' for Active; 'I' for Inactive)
REMARK    1  A    between atoms: C_2  and  C_3
REMARK    2  A    between atoms: C_3  and  C_4
REMARK    3  A    between atoms: C_4  and  C_5
REMARK    4  A    between atoms: C_5  and  C_6
REMARK    5  A    between atoms: C_6  and  C_7
REMARK    6  A    between atoms: C_7  and  C_8
REMARK    7  A    between atoms: C_8  and  C_9
REMARK    8  A    between atoms: C_9  and  C_10
REMARK    9  A    between atoms: C_10  and  C_11
REMARK   10  A    between atoms: C_11  and  C_12
REMARK   11  A    between atoms: C_12  and  C_13
REMARK   12  A    between atoms: C_13  and  O_14
REMARK   13  A    between atoms: O_14  and  S_15
REMARK                            x       y       z     vdW  Elec       q    Type
REMARK                         _______ _______ _______ _____ _____    ______ ____
ROOT
ATOM      1 NA   UNL     1       0.000   0.000   0.000  0.00  0.00    +0.000 Na
ENDROOT
TORSDOF 0
REMARK  Name = 
REMARK  13 active torsions:
REMARK  status: ('A' for Active; 'I' for Inactive)
REMARK    1  A    between atoms: C_2  and  C_3
REMARK    2  A    between atoms: C_3  and  C_4
REMARK    3  A    between atoms: C_4  and  C_5
REMARK    4  A    between atoms: C_5  and  C_6
REMARK    5  A    between atoms: C_6  and  C_7
REMARK    6  A    between atoms: C_7  and  C_8
REMARK    7  A    between atoms: C_8  and  C_9
REMARK    8  A    between atoms: C_9  and  C_10
REMARK    9  A    between atoms: C_10  and  C_11
REMARK   10  A    between atoms: C_11  and  C_12
REMARK   11  A    between atoms: C_12  and  C_13
REMARK   12  A    between atoms: C_13  and  O_14
REMARK   13  A    between atoms: O_14  and  S_15
REMARK                            x       y       z     vdW  Elec       q    Type
REMARK                         _______ _______ _______ _____ _____    ______ ____
ROOT
ATOM      1  C   UNL     1      -1.519  -1.018  -0.032  0.00  0.00    +0.000 C 
ENDROOT
BRANCH   1   2
ATOM      2  C   UNL     1      -0.896  -0.390   1.226  0.00  0.00    +0.000 C 
BRANCH   2   3
ATOM      3  C   UNL     1       0.383  -1.114   1.687  0.00  0.00    +0.000 C 
BRANCH   3   4
ATOM      4  C   UNL     1       1.546  -1.101   0.677  0.00  0.00    +0.000 C 
BRANCH   4   5
ATOM      5  C   UNL     1       2.033   0.320   0.342  0.00  0.00    +0.000 C 
BRANCH   5   6
ATOM      6  C   UNL     1       3.281   0.317  -0.556  0.00  0.00    +0.000 C 
BRANCH   6   7
ATOM      7  C   UNL     1       4.573   0.035   0.232  0.00  0.00    +0.000 C 
BRANCH   7   9
ATOM      8  C   UNL     1       6.218   1.355  -1.207  0.00  0.00    +0.000 C 
ATOM      9  C   UNL     1       5.814  -0.018  -0.673  0.00  0.00    +0.000 C 
ENDBRANCH   7   9
ENDBRANCH   6   7
ENDBRANCH   5   6
ENDBRANCH   4   5
ENDBRANCH   3   4
ENDBRANCH   2   3
ENDBRANCH   1   2
BRANCH   1  10
ATOM     10  C   UNL     1      -2.849  -0.355  -0.425  0.00  0.00    +0.000 C 
BRANCH  10  11
ATOM     11  C   UNL     1      -4.013  -0.774   0.490  0.00  0.00    +0.000 C 
BRANCH  11  12
ATOM     12  C   UNL     1      -5.348  -0.215  -0.005  0.00  0.00    +0.000 C 
BRANCH  12  13
ATOM     13  O   UNL     1      -5.327   1.191   0.061  0.00  0.00    +0.000 OA
BRANCH  13  14
ATOM     14  S   UNL     1      -6.820   1.773  -0.487  0.00  0.00    +0.000 S 
ATOM     15  O   UNL     1      -7.125   1.227  -2.047  0.00  0.00    +0.000 OA
ATOM     16  O   UNL     1      -7.921   1.323   0.432  0.00  0.00    +0.000 OA
ATOM     17  O   UNL     1      -6.779   3.275  -0.499  0.00  0.00    +0.000 OA
ENDBRANCH  13  14
ENDBRANCH  12  13
ENDBRANCH  11  12
ENDBRANCH  10  11
ENDBRANCH   1  10
TORSDOF 12
