REMARK  Name = 
REMARK  1 active torsions:
REMARK  status: ('A' for Active; 'I' for Inactive)
REMARK    1  A    between atoms: O_2  and  C_3
REMARK                            x       y       z     vdW  Elec       q    Type
REMARK                         _______ _______ _______ _____ _____    ______ ____
ROOT
ATOM      1 NA   UNL     1       0.000   0.000   0.000  0.00  0.00    +0.000 Na
ENDROOT
TORSDOF 0
REMARK  Name = 
REMARK  1 active torsions:
REMARK  status: ('A' for Active; 'I' for Inactive)
REMARK    1  A    between atoms: O_2  and  C_3
REMARK                            x       y       z     vdW  Elec       q    Type
REMARK                         _______ _______ _______ _____ _____    ______ ____
ROOT
ATOM      1  C   UNL     1      -0.419   0.048  -0.022  0.00  0.00    +0.000 C 
ATOM      2  O   UNL     1      -1.583  -0.700  -0.138  0.00  0.00    +0.000 OA
ATOM      3  O   UNL     1      -0.485   1.303   0.049  0.00  0.00    +0.000 OA
ENDROOT
BRANCH   1   4
ATOM      4  O   UNL     1       0.815  -0.592   0.013  0.00  0.00    +0.000 OA
ATOM      5  H   UNL     1       1.673  -0.060   0.097  0.00  0.00    +0.000 HD
ENDBRANCH   1   4
TORSDOF 1
