REMARK  Name = 
REMARK  16 active torsions:
REMARK  status: ('A' for Active; 'I' for Inactive)
REMARK    1  A    between atoms: C_1  and  C_2
REMARK    2  A    between atoms: C_2  and  C_3
REMARK    3  A    between atoms: C_3  and  C_4
REMARK    4  A    between atoms: C_4  and  C_5
REMARK    5  A    between atoms: C_5  and  C_6
REMARK    6  A    between atoms: C_6  and  C_7
REMARK    7  A    between atoms: C_7  and  C_8
REMARK    8  A    between atoms: C_8  and  C_9
REMARK    9  A    between atoms: C_9  and  C_10
REMARK   10  A    between atoms: C_10  and  C_11
REMARK   11  A    between atoms: C_11  and  C_12
REMARK   12  A    between atoms: C_12  and  C_13
REMARK   13  A    between atoms: C_13  and  C_14
REMARK   14  A    between atoms: C_14  and  O_15
REMARK   15  A    between atoms: O_15  and  S_16
REMARK   16  A    between atoms: S_16  and  O_17
REMARK                            x       y       z     vdW  Elec       q    Type
REMARK                         _______ _______ _______ _____ _____    ______ ____
ROOT
ATOM      1  C   UNL     1      -1.586   2.273  -0.625  0.00  0.00    +0.000 C 
ENDROOT
BRANCH   1   2
ATOM      2  C   UNL     1      -0.450   1.279  -0.343  0.00  0.00    +0.000 C 
BRANCH   2   3
ATOM      3  C   UNL     1       0.731   1.975   0.343  0.00  0.00    -0.000 C 
BRANCH   3   4
ATOM      4  C   UNL     1       1.861   0.981   0.638  0.00  0.00    -0.000 C 
BRANCH   4   5
ATOM      5  C   UNL     1       3.052   1.681   1.305  0.00  0.00    -0.000 C 
BRANCH   5   6
ATOM      6  C   UNL     1       4.142   0.700   1.768  0.00  0.00    -0.000 C 
BRANCH   6   7
ATOM      7  C   UNL     1       4.862  -0.017   0.606  0.00  0.00    -0.000 C 
BRANCH   7   8
ATOM      8  C   UNL     1       4.369  -1.464   0.424  0.00  0.00    -0.000 C 
BRANCH   8  10
ATOM      9  C   UNL     1       6.425  -2.385  -0.775  0.00  0.00    +0.004 C 
ATOM     10  C   UNL     1       4.922  -2.120  -0.851  0.00  0.00    -0.003 C 
ENDBRANCH   8  10
ENDBRANCH   7   8
ENDBRANCH   6   7
ENDBRANCH   5   6
ENDBRANCH   4   5
ENDBRANCH   3   4
ENDBRANCH   2   3
ENDBRANCH   1   2
BRANCH   1  11
ATOM     11  C   UNL     1      -2.734   1.648  -1.434  0.00  0.00    +0.000 C 
BRANCH  11  12
ATOM     12  C   UNL     1      -3.551   0.635  -0.619  0.00  0.00    +0.002 C 
BRANCH  12  13
ATOM     13  C   UNL     1      -4.767   0.143  -1.416  0.00  0.00    +0.030 C 
BRANCH  13  14
ATOM     14  C   UNL     1      -5.574  -0.896  -0.635  0.00  0.00    +0.196 C 
BRANCH  14  15
ATOM     15  O   UNL     1      -6.132  -0.298   0.511  0.00  0.00    -0.216 OA
BRANCH  15  16
ATOM     16  S   UNL     1      -6.896  -1.502   1.425  0.00  0.00    +0.207 S 
ATOM     17  O   UNL     1      -5.871  -2.439   2.003  0.00  0.00    -0.118 OA
ATOM     18  O   UNL     1      -7.643  -0.850   2.554  0.00  0.00    -0.118 OA
BRANCH  16  19
ATOM     19  O   UNL     1      -7.995  -2.360   0.480  0.00  0.00    -0.231 OA
ATOM     20  H   UNL     1      -7.481  -3.120   0.106  0.00  0.00    +0.247 HD
ENDBRANCH  16  19
ENDBRANCH  15  16
ENDBRANCH  14  15
ENDBRANCH  13  14
ENDBRANCH  12  13
ENDBRANCH  11  12
ENDBRANCH   1  11
TORSDOF 15
