REMARK  Name = 
REMARK  13 active torsions:
REMARK  status: ('A' for Active; 'I' for Inactive)
REMARK    1  A    between atoms: C_14  and  C_44
REMARK    2  A    between atoms: SB_16  and  O_17
REMARK    3  A    between atoms: SB_16  and  O_18
REMARK    4  A    between atoms: O_18  and  SB_19
REMARK    5  A    between atoms: C_22  and  C_23
REMARK    6  A    between atoms: C_29  and  C_32
REMARK    7  A    between atoms: C_32  and  O_33
REMARK    8  A    between atoms: C_32  and  C_34
REMARK    9  A    between atoms: C_34  and  O_35
REMARK   10  A    between atoms: C_37  and  C_38
REMARK   11  A    between atoms: C_44  and  O_45
REMARK   12  A    between atoms: C_44  and  C_46
REMARK   13  A    between atoms: C_46  and  O_47
REMARK                            x       y       z     vdW  Elec       q    Type
REMARK                         _______ _______ _______ _____ _____    ______ ____
ROOT
ATOM      1  O   HOH     1       1.020  -0.032  -0.093  0.00  0.00    +0.000 OA
ATOM      2  H   HOH     0       0.687   0.121   0.838  0.00  0.00    +0.000 HD
ATOM      3  H   HOH     0       2.020  -0.032  -0.093  0.00  0.00    +0.000 HD
ENDROOT
TORSDOF 0
REMARK  Name = 
REMARK  13 active torsions:
REMARK  status: ('A' for Active; 'I' for Inactive)
REMARK    1  A    between atoms: C_14  and  C_44
REMARK    2  A    between atoms: SB_16  and  O_17
REMARK    3  A    between atoms: SB_16  and  O_18
REMARK    4  A    between atoms: O_18  and  SB_19
REMARK    5  A    between atoms: C_22  and  C_23
REMARK    6  A    between atoms: C_29  and  C_32
REMARK    7  A    between atoms: C_32  and  O_33
REMARK    8  A    between atoms: C_32  and  C_34
REMARK    9  A    between atoms: C_34  and  O_35
REMARK   10  A    between atoms: C_37  and  C_38
REMARK   11  A    between atoms: C_44  and  O_45
REMARK   12  A    between atoms: C_44  and  C_46
REMARK   13  A    between atoms: C_46  and  O_47
REMARK                            x       y       z     vdW  Elec       q    Type
REMARK                         _______ _______ _______ _____ _____    ______ ____
ROOT
ATOM      1  O   HOH     1       0.968   0.089  -0.034  0.00  0.00    +0.000 OA
ATOM      2  H   HOH     0       0.635   0.070   0.909  0.00  0.00    +0.000 HD
ATOM      3  H   HOH     0       1.968   0.089  -0.034  0.00  0.00    +0.000 HD
ENDROOT
TORSDOF 0
REMARK  Name = 
REMARK  13 active torsions:
REMARK  status: ('A' for Active; 'I' for Inactive)
REMARK    1  A    between atoms: C_14  and  C_44
REMARK    2  A    between atoms: SB_16  and  O_17
REMARK    3  A    between atoms: SB_16  and  O_18
REMARK    4  A    between atoms: O_18  and  SB_19
REMARK    5  A    between atoms: C_22  and  C_23
REMARK    6  A    between atoms: C_29  and  C_32
REMARK    7  A    between atoms: C_32  and  O_33
REMARK    8  A    between atoms: C_32  and  C_34
REMARK    9  A    between atoms: C_34  and  O_35
REMARK   10  A    between atoms: C_37  and  C_38
REMARK   11  A    between atoms: C_44  and  O_45
REMARK   12  A    between atoms: C_44  and  C_46
REMARK   13  A    between atoms: C_46  and  O_47
REMARK                            x       y       z     vdW  Elec       q    Type
REMARK                         _______ _______ _______ _____ _____    ______ ____
ROOT
ATOM      1  O   HOH     1       0.994  -0.058  -0.081  0.00  0.00    +0.000 OA
ATOM      2  H   HOH     0       0.661  -0.872  -0.558  0.00  0.00    +0.000 HD
ATOM      3  H   HOH     0       1.994  -0.058  -0.081  0.00  0.00    +0.000 HD
ENDROOT
TORSDOF 0
REMARK  Name = 
REMARK  13 active torsions:
REMARK  status: ('A' for Active; 'I' for Inactive)
REMARK    1  A    between atoms: C_14  and  C_44
REMARK    2  A    between atoms: SB_16  and  O_17
REMARK    3  A    between atoms: SB_16  and  O_18
REMARK    4  A    between atoms: O_18  and  SB_19
REMARK    5  A    between atoms: C_22  and  C_23
REMARK    6  A    between atoms: C_29  and  C_32
REMARK    7  A    between atoms: C_32  and  O_33
REMARK    8  A    between atoms: C_32  and  C_34
REMARK    9  A    between atoms: C_34  and  O_35
REMARK   10  A    between atoms: C_37  and  C_38
REMARK   11  A    between atoms: C_44  and  O_45
REMARK   12  A    between atoms: C_44  and  C_46
REMARK   13  A    between atoms: C_46  and  O_47
REMARK                            x       y       z     vdW  Elec       q    Type
REMARK                         _______ _______ _______ _____ _____    ______ ____
ROOT
ATOM      1  O   HOH     1       1.097   0.020  -0.015  0.00  0.00    +0.000 OA
ATOM      2  H   HOH     0       0.763  -0.563  -0.756  0.00  0.00    +0.000 HD
ATOM      3  H   HOH     0       2.097   0.020  -0.015  0.00  0.00    +0.000 HD
ENDROOT
TORSDOF 0
REMARK  Name = 
REMARK  13 active torsions:
REMARK  status: ('A' for Active; 'I' for Inactive)
REMARK    1  A    between atoms: C_14  and  C_44
REMARK    2  A    between atoms: SB_16  and  O_17
REMARK    3  A    between atoms: SB_16  and  O_18
REMARK    4  A    between atoms: O_18  and  SB_19
REMARK    5  A    between atoms: C_22  and  C_23
REMARK    6  A    between atoms: C_29  and  C_32
REMARK    7  A    between atoms: C_32  and  O_33
REMARK    8  A    between atoms: C_32  and  C_34
REMARK    9  A    between atoms: C_34  and  O_35
REMARK   10  A    between atoms: C_37  and  C_38
REMARK   11  A    between atoms: C_44  and  O_45
REMARK   12  A    between atoms: C_44  and  C_46
REMARK   13  A    between atoms: C_46  and  O_47
REMARK                            x       y       z     vdW  Elec       q    Type
REMARK                         _______ _______ _______ _____ _____    ______ ____
ROOT
ATOM      1  O   HOH     1       0.969   0.062   0.072  0.00  0.00    +0.000 OA
ATOM      2  H   HOH     0       0.636   0.062   1.015  0.00  0.00    +0.000 HD
ATOM      3  H   HOH     0       1.969   0.062   0.072  0.00  0.00    +0.000 HD
ENDROOT
TORSDOF 0
REMARK  Name = 
REMARK  13 active torsions:
REMARK  status: ('A' for Active; 'I' for Inactive)
REMARK    1  A    between atoms: C_14  and  C_44
REMARK    2  A    between atoms: SB_16  and  O_17
REMARK    3  A    between atoms: SB_16  and  O_18
REMARK    4  A    between atoms: O_18  and  SB_19
REMARK    5  A    between atoms: C_22  and  C_23
REMARK    6  A    between atoms: C_29  and  C_32
REMARK    7  A    between atoms: C_32  and  O_33
REMARK    8  A    between atoms: C_32  and  C_34
REMARK    9  A    between atoms: C_34  and  O_35
REMARK   10  A    between atoms: C_37  and  C_38
REMARK   11  A    between atoms: C_44  and  O_45
REMARK   12  A    between atoms: C_44  and  C_46
REMARK   13  A    between atoms: C_46  and  O_47
REMARK                            x       y       z     vdW  Elec       q    Type
REMARK                         _______ _______ _______ _____ _____    ______ ____
ROOT
ATOM      1  O   HOH     1       1.014   0.073   0.067  0.00  0.00    +0.000 OA
ATOM      2  H   HOH     0       0.680   0.905   0.511  0.00  0.00    +0.000 HD
ATOM      3  H   HOH     0       2.014   0.073   0.067  0.00  0.00    +0.000 HD
ENDROOT
TORSDOF 0
REMARK  Name = 
REMARK  13 active torsions:
REMARK  status: ('A' for Active; 'I' for Inactive)
REMARK    1  A    between atoms: C_14  and  C_44
REMARK    2  A    between atoms: SB_16  and  O_17
REMARK    3  A    between atoms: SB_16  and  O_18
REMARK    4  A    between atoms: O_18  and  SB_19
REMARK    5  A    between atoms: C_22  and  C_23
REMARK    6  A    between atoms: C_29  and  C_32
REMARK    7  A    between atoms: C_32  and  O_33
REMARK    8  A    between atoms: C_32  and  C_34
REMARK    9  A    between atoms: C_34  and  O_35
REMARK   10  A    between atoms: C_37  and  C_38
REMARK   11  A    between atoms: C_44  and  O_45
REMARK   12  A    between atoms: C_44  and  C_46
REMARK   13  A    between atoms: C_46  and  O_47
REMARK                            x       y       z     vdW  Elec       q    Type
REMARK                         _______ _______ _______ _____ _____    ______ ____
ROOT
ATOM      1  O   HOH     1       0.920   0.053   0.027  0.00  0.00    +0.000 OA
ATOM      2  H   HOH     0       0.586  -0.437  -0.778  0.00  0.00    +0.000 HD
ATOM      3  H   HOH     0       1.920   0.053   0.027  0.00  0.00    +0.000 HD
ENDROOT
TORSDOF 0
REMARK  Name = 
REMARK  13 active torsions:
REMARK  status: ('A' for Active; 'I' for Inactive)
REMARK    1  A    between atoms: C_14  and  C_44
REMARK    2  A    between atoms: SB_16  and  O_17
REMARK    3  A    between atoms: SB_16  and  O_18
REMARK    4  A    between atoms: O_18  and  SB_19
REMARK    5  A    between atoms: C_22  and  C_23
REMARK    6  A    between atoms: C_29  and  C_32
REMARK    7  A    between atoms: C_32  and  O_33
REMARK    8  A    between atoms: C_32  and  C_34
REMARK    9  A    between atoms: C_34  and  O_35
REMARK   10  A    between atoms: C_37  and  C_38
REMARK   11  A    between atoms: C_44  and  O_45
REMARK   12  A    between atoms: C_44  and  C_46
REMARK   13  A    between atoms: C_46  and  O_47
REMARK                            x       y       z     vdW  Elec       q    Type
REMARK                         _______ _______ _______ _____ _____    ______ ____
ROOT
ATOM      1  O   HOH     1       1.033   0.040  -0.086  0.00  0.00    +0.000 OA
ATOM      2  H   HOH     0       0.699  -0.697   0.502  0.00  0.00    +0.000 HD
ATOM      3  H   HOH     0       2.033   0.040  -0.086  0.00  0.00    +0.000 HD
ENDROOT
TORSDOF 0
REMARK  Name = 
REMARK  13 active torsions:
REMARK  status: ('A' for Active; 'I' for Inactive)
REMARK    1  A    between atoms: C_14  and  C_44
REMARK    2  A    between atoms: SB_16  and  O_17
REMARK    3  A    between atoms: SB_16  and  O_18
REMARK    4  A    between atoms: O_18  and  SB_19
REMARK    5  A    between atoms: C_22  and  C_23
REMARK    6  A    between atoms: C_29  and  C_32
REMARK    7  A    between atoms: C_32  and  O_33
REMARK    8  A    between atoms: C_32  and  C_34
REMARK    9  A    between atoms: C_34  and  O_35
REMARK   10  A    between atoms: C_37  and  C_38
REMARK   11  A    between atoms: C_44  and  O_45
REMARK   12  A    between atoms: C_44  and  C_46
REMARK   13  A    between atoms: C_46  and  O_47
REMARK                            x       y       z     vdW  Elec       q    Type
REMARK                         _______ _______ _______ _____ _____    ______ ____
ROOT
ATOM      1  O   HOH     1       1.002  -0.002   0.100  0.00  0.00    +0.000 OA
ATOM      2  H   HOH     0       0.668  -0.240   1.012  0.00  0.00    +0.000 HD
ATOM      3  H   HOH     0       2.002  -0.002   0.100  0.00  0.00    +0.000 HD
ENDROOT
TORSDOF 0
REMARK  Name = 
REMARK  13 active torsions:
REMARK  status: ('A' for Active; 'I' for Inactive)
REMARK    1  A    between atoms: C_14  and  C_44
REMARK    2  A    between atoms: SB_16  and  O_17
REMARK    3  A    between atoms: SB_16  and  O_18
REMARK    4  A    between atoms: O_18  and  SB_19
REMARK    5  A    between atoms: C_22  and  C_23
REMARK    6  A    between atoms: C_29  and  C_32
REMARK    7  A    between atoms: C_32  and  O_33
REMARK    8  A    between atoms: C_32  and  C_34
REMARK    9  A    between atoms: C_34  and  O_35
REMARK   10  A    between atoms: C_37  and  C_38
REMARK   11  A    between atoms: C_44  and  O_45
REMARK   12  A    between atoms: C_44  and  C_46
REMARK   13  A    between atoms: C_46  and  O_47
REMARK                            x       y       z     vdW  Elec       q    Type
REMARK                         _______ _______ _______ _____ _____    ______ ____
ROOT
ATOM      1 NA   UNL     1       0.933   0.034  -0.066  0.00  0.00    +0.000 Na
ENDROOT
TORSDOF 0
REMARK  Name = 
REMARK  13 active torsions:
REMARK  status: ('A' for Active; 'I' for Inactive)
REMARK    1  A    between atoms: C_14  and  C_44
REMARK    2  A    between atoms: SB_16  and  O_17
REMARK    3  A    between atoms: SB_16  and  O_18
REMARK    4  A    between atoms: O_18  and  SB_19
REMARK    5  A    between atoms: C_22  and  C_23
REMARK    6  A    between atoms: C_29  and  C_32
REMARK    7  A    between atoms: C_32  and  O_33
REMARK    8  A    between atoms: C_32  and  C_34
REMARK    9  A    between atoms: C_34  and  O_35
REMARK   10  A    between atoms: C_37  and  C_38
REMARK   11  A    between atoms: C_44  and  O_45
REMARK   12  A    between atoms: C_44  and  C_46
REMARK   13  A    between atoms: C_46  and  O_47
REMARK                            x       y       z     vdW  Elec       q    Type
REMARK                         _______ _______ _______ _____ _____    ______ ____
ROOT
ATOM      1 NA   UNL     1       1.054   0.023   0.081  0.00  0.00    +0.000 Na
ENDROOT
TORSDOF 0
REMARK  Name = 
REMARK  13 active torsions:
REMARK  status: ('A' for Active; 'I' for Inactive)
REMARK    1  A    between atoms: C_14  and  C_44
REMARK    2  A    between atoms: SB_16  and  O_17
REMARK    3  A    between atoms: SB_16  and  O_18
REMARK    4  A    between atoms: O_18  and  SB_19
REMARK    5  A    between atoms: C_22  and  C_23
REMARK    6  A    between atoms: C_29  and  C_32
REMARK    7  A    between atoms: C_32  and  O_33
REMARK    8  A    between atoms: C_32  and  C_34
REMARK    9  A    between atoms: C_34  and  O_35
REMARK   10  A    between atoms: C_37  and  C_38
REMARK   11  A    between atoms: C_44  and  O_45
REMARK   12  A    between atoms: C_44  and  C_46
REMARK   13  A    between atoms: C_46  and  O_47
REMARK                            x       y       z     vdW  Elec       q    Type
REMARK                         _______ _______ _______ _____ _____    ______ ____
ROOT
ATOM      1 NA   UNL     1       0.915  -0.025  -0.047  0.00  0.00    +0.000 Na
ENDROOT
TORSDOF 0
REMARK  Name = 
REMARK  13 active torsions:
REMARK  status: ('A' for Active; 'I' for Inactive)
REMARK    1  A    between atoms: C_14  and  C_44
REMARK    2  A    between atoms: SB_16  and  O_17
REMARK    3  A    between atoms: SB_16  and  O_18
REMARK    4  A    between atoms: O_18  and  SB_19
REMARK    5  A    between atoms: C_22  and  C_23
REMARK    6  A    between atoms: C_29  and  C_32
REMARK    7  A    between atoms: C_32  and  O_33
REMARK    8  A    between atoms: C_32  and  C_34
REMARK    9  A    between atoms: C_34  and  O_35
REMARK   10  A    between atoms: C_37  and  C_38
REMARK   11  A    between atoms: C_44  and  O_45
REMARK   12  A    between atoms: C_44  and  C_46
REMARK   13  A    between atoms: C_46  and  O_47
REMARK                            x       y       z     vdW  Elec       q    Type
REMARK                         _______ _______ _______ _____ _____    ______ ____
ROOT
ATOM      1  C   UNL     1       2.222   3.112  -9.042  0.00  0.00    +0.000 C 
ATOM      2  O   UNL     1       0.876   2.388  -8.780  0.00  0.00    +0.000 OA
ATOM      3 SB   UNL     1       0.778   2.394  -7.226  0.00  0.00    +0.000 Sb
ATOM      4  O   UNL     1       0.458   3.869  -6.838  0.00  0.00    +0.000 OA
ATOM      5  C   UNL     1       1.804   4.592  -7.099  0.00  0.00    +0.000 C 
ATOM      6  C   UNL     1       2.723   3.438  -7.603  0.00  0.00    +0.000 C 
ATOM      7  O   UNL     1       2.191   2.299  -6.850  0.00  0.00    +0.000 OA
ENDROOT
BRANCH   5   8
ATOM      8  C   UNL     1       2.351   5.209  -5.822  0.00  0.00    +0.000 C 
ATOM      9  O   UNL     1       3.465   6.077  -5.967  0.00  0.00    +0.000 OA
ATOM     10  O   UNL     1       1.797   5.071  -4.686  0.00  0.00    +0.000 OA
ENDBRANCH   5   8
BRANCH   3  11
ATOM     11  O   UNL     1      -0.093   4.231  -7.487  0.00  0.00    +0.000 OA
ATOM     12  H   UNL     1       0.584   4.948  -7.320  0.00  0.00    +0.000 HD
ENDBRANCH   3  11
BRANCH   3  13
ATOM     13  O   UNL     1      -0.329   0.688  -7.490  0.00  0.00    +0.000 OA
BRANCH  13  14
ATOM     14 SB   UNL     1      -2.248   1.192  -8.006  0.00  0.00    +0.000 Sb
ATOM     15  O   UNL     1      -3.248   0.101  -9.425  0.00  0.00    +0.000 OA
ATOM     16  O   UNL     1      -1.579   1.886  -9.231  0.00  0.00    +0.000 OA
ATOM     17  C   UNL     1      -1.241   3.296  -8.683  0.00  0.00    +0.000 C 
ATOM     18  C   UNL     1      -1.758   3.230  -7.215  0.00  0.00    +0.000 C 
ATOM     19  O   UNL     1      -2.906   2.329  -7.358  0.00  0.00    +0.000 OA
ATOM     20  C   UNL     1      -0.746   2.315  -6.462  0.00  0.00    +0.000 C 
ATOM     21  O   UNL     1      -1.085   0.905  -7.010  0.00  0.00    +0.000 OA
BRANCH  17  22
ATOM     22  C   UNL     1      -1.965   4.377  -9.470  0.00  0.00    +0.000 C 
ATOM     23  O   UNL     1      -2.778   5.326  -8.797  0.00  0.00    +0.000 OA
ATOM     24  O   UNL     1      -1.831   4.436 -10.733  0.00  0.00    +0.000 OA
ENDBRANCH  17  22
BRANCH  20  25
ATOM     25  C   UNL     1      -0.897   2.408  -4.953  0.00  0.00    +0.000 C 
BRANCH  25  26
ATOM     26  O   UNL     1       0.361   2.179  -4.336  0.00  0.00    +0.000 OA
ATOM     27  H   UNL     1       0.156   2.849  -3.623  0.00  0.00    +0.000 HD
ENDBRANCH  25  26
BRANCH  25  28
ATOM     28  C   UNL     1      -1.893   1.362  -4.478  0.00  0.00    +0.000 C 
BRANCH  28  29
ATOM     29  O   UNL     1      -2.034   1.449  -3.067  0.00  0.00    +0.000 OA
ATOM     30  H   UNL     1      -1.148   1.288  -2.633  0.00  0.00    +0.000 HD
ENDBRANCH  28  29
ENDBRANCH  25  28
ENDBRANCH  20  25
ENDBRANCH  13  14
ENDBRANCH   3  13
BRANCH   1  31
ATOM     31  C   UNL     1       3.113   2.320  -9.984  0.00  0.00    +0.000 C 
BRANCH  31  32
ATOM     32  O   UNL     1       3.053   0.942  -9.647  0.00  0.00    +0.000 OA
ATOM     33  H   UNL     1       3.793   0.721 -10.283  0.00  0.00    +0.000 HD
ENDBRANCH  31  32
BRANCH  31  34
ATOM     34  C   UNL     1       4.546   2.811  -9.858  0.00  0.00    +0.000 C 
BRANCH  34  35
ATOM     35  O   UNL     1       5.379   2.071 -10.738  0.00  0.00    +0.000 OA
ATOM     36  H   UNL     1       5.337   1.101 -10.501  0.00  0.00    +0.000 HD
ENDBRANCH  34  35
ENDBRANCH  31  34
ENDBRANCH   1  31
TORSDOF 13
