REMARK  Name = 
REMARK  8 active torsions:
REMARK  status: ('A' for Active; 'I' for Inactive)
REMARK    1  A    between atoms: O_1  and  C_2
REMARK    2  A    between atoms: C_2  and  C_4
REMARK    3  A    between atoms: C_4  and  C_5
REMARK    4  A    between atoms: C_5  and  C_6
REMARK    5  A    between atoms: C_6  and  O_7
REMARK    6  A    between atoms: C_10  and  O_11
REMARK    7  A    between atoms: O_11  and  C_12
REMARK    8  A    between atoms: C_29  and  C_30
REMARK                            x       y       z     vdW  Elec       q    Type
REMARK                         _______ _______ _______ _____ _____    ______ ____
ROOT
ATOM      1  C   UNL     1       0.616  -0.578  -0.789  0.00  0.00    +0.131 C 
ENDROOT
BRANCH   1   2
ATOM      2  C   UNL     1       1.561  -0.283   0.335  0.00  0.00    +0.305 C 
ATOM      3  O   UNL     1       2.040  -1.226   1.022  0.00  0.00    -0.251 OA
BRANCH   2   4
ATOM      4  O   UNL     1       1.879   1.035   0.647  0.00  0.00    -0.481 OA
ATOM      5  H   UNL     1       2.503   1.251   1.415  0.00  0.00    +0.295 HD
ENDBRANCH   2   4
ENDBRANCH   1   2
BRANCH   1   6
ATOM      6  C   UNL     1      -0.808  -0.822  -0.280  0.00  0.00    +0.131 C 
BRANCH   6   7
ATOM      7  C   UNL     1      -1.407   0.422   0.300  0.00  0.00    +0.305 C 
ATOM      8  O   UNL     1      -1.380   0.615   1.545  0.00  0.00    -0.251 OA
BRANCH   7   9
ATOM      9  O   UNL     1      -1.970   1.378  -0.540  0.00  0.00    -0.481 OA
ATOM     10  H   UNL     1      -2.374   2.228  -0.164  0.00  0.00    +0.295 HD
ENDBRANCH   7   9
ENDBRANCH   6   7
ENDBRANCH   1   6
TORSDOF 5
REMARK  Name = 
REMARK  8 active torsions:
REMARK  status: ('A' for Active; 'I' for Inactive)
REMARK    1  A    between atoms: O_1  and  C_2
REMARK    2  A    between atoms: C_2  and  C_4
REMARK    3  A    between atoms: C_4  and  C_5
REMARK    4  A    between atoms: C_5  and  C_6
REMARK    5  A    between atoms: C_6  and  O_7
REMARK    6  A    between atoms: C_10  and  O_11
REMARK    7  A    between atoms: O_11  and  C_12
REMARK    8  A    between atoms: C_29  and  C_30
REMARK                            x       y       z     vdW  Elec       q    Type
REMARK                         _______ _______ _______ _____ _____    ______ ____
ROOT
ATOM      1  O   UNL     1       0.948   2.039   1.964  0.00  0.00    -0.226 OA
ATOM      2  C   UNL     1       0.471   1.524   0.915  0.00  0.00    +0.404 C 
ATOM      3  N   UNL     1      -0.952   1.542   0.684  0.00  0.00    -0.256 N 
ATOM      4  C   UNL     1      -1.816   2.379   1.529  0.00  0.00    +0.117 C 
ATOM      5  C   UNL     1      -2.879   3.060   0.679  0.00  0.00    +0.054 C 
ATOM      6  C   UNL     1      -3.636   2.050  -0.132  0.00  0.00    -0.041 A 
ATOM      7  C   UNL     1      -4.969   2.311  -0.490  0.00  0.00    +0.004 A 
ATOM      8  C   UNL     1      -5.666   1.424  -1.311  0.00  0.00    +0.000 A 
ATOM      9  C   UNL     1      -5.034   0.280  -1.800  0.00  0.00    +0.000 A 
ATOM     10  C   UNL     1      -3.704   0.019  -1.466  0.00  0.00    +0.006 A 
ATOM     11  C   UNL     1      -2.992   0.889  -0.617  0.00  0.00    -0.019 A 
ATOM     12  C   UNL     1      -1.534   0.592  -0.288  0.00  0.00    +0.140 C 
ENDROOT
BRANCH  12  13
ATOM     13  C   UNL     1      -1.379  -0.832   0.218  0.00  0.00    -0.023 A 
ATOM     14  C   UNL     1      -0.719  -1.792  -0.570  0.00  0.00    +0.006 A 
ATOM     15  C   UNL     1      -0.578  -3.106  -0.115  0.00  0.00    +0.000 A 
ATOM     16  C   UNL     1      -1.099  -3.478   1.125  0.00  0.00    +0.000 A 
ATOM     17  C   UNL     1      -1.773  -2.538   1.909  0.00  0.00    +0.000 A 
ATOM     18  C   UNL     1      -1.918  -1.223   1.457  0.00  0.00    +0.006 A 
ENDBRANCH  12  13
BRANCH   2  19
ATOM     19  O   UNL     1       1.327   0.932  -0.022  0.00  0.00    -0.445 OA
BRANCH  19  20
ATOM     20  C   UNL     1       2.731   0.775   0.201  0.00  0.00    +0.195 C 
ATOM     21  C   UNL     1       3.000  -0.381   1.207  0.00  0.00    +0.129 C 
ATOM     22  N   UNL     1       3.896  -1.407   0.619  0.00  0.00    -0.299 NA
ATOM     23  C   UNL     1       3.248  -1.989  -0.582  0.00  0.00    +0.085 C 
ATOM     24  C   UNL     1       2.973  -0.903  -1.653  0.00  0.00    +0.022 C 
ATOM     25  C   UNL     1       3.454   0.462  -1.127  0.00  0.00    +0.034 C 
ATOM     26  C   UNL     1       4.960   0.342  -0.825  0.00  0.00    +0.022 C 
ATOM     27  C   UNL     1       5.181  -0.775   0.228  0.00  0.00    +0.085 C 
ENDBRANCH  19  20
ENDBRANCH   2  19
TORSDOF 3
