REMARK  Name = 
REMARK  7 active torsions:
REMARK  status: ('A' for Active; 'I' for Inactive)
REMARK    1  A    between atoms: C_1  and  N_2
REMARK    2  A    between atoms: C_3  and  C_5
REMARK    3  A    between atoms: C_9  and  O_10
REMARK    4  A    between atoms: O_10  and  C_11
REMARK    5  A    between atoms: C_14  and  N_15
REMARK    6  A    between atoms: N_18  and  C_19
REMARK    7  A    between atoms: C_21  and  C_26
REMARK                            x       y       z     vdW  Elec       q    Type
REMARK                         _______ _______ _______ _____ _____    ______ ____
ROOT
ATOM      1  C   UNL     1       1.620   0.754  -2.447  0.00  0.00    +0.129 A 
ATOM      2  C   UNL     1       0.775   0.211  -3.420  0.00  0.00    +0.048 A 
ATOM      3  C   UNL     1      -0.437  -0.382  -3.055  0.00  0.00    +0.027 A 
ATOM      4  C   UNL     1      -0.837  -0.413  -1.712  0.00  0.00    +0.035 A 
ATOM      5  C   UNL     1       0.012   0.131  -0.732  0.00  0.00    +0.027 A 
ATOM      6  C   UNL     1       1.224   0.723  -1.098  0.00  0.00    +0.048 A 
ENDROOT
BRANCH   4   7
ATOM      7  N   UNL     1      -2.079  -1.049  -1.361  0.00  0.00    -0.269 N 
ATOM      8  C   UNL     1      -2.934  -0.617  -0.292  0.00  0.00    +0.308 C 
ATOM      9  O   UNL     1      -2.728   0.488   0.281  0.00  0.00    -0.252 OA
ATOM     10  N   UNL     1      -4.026  -1.453   0.119  0.00  0.00    -0.269 N 
ATOM     11  H   UNL     1      -2.429  -1.817  -1.978  0.00  0.00    +0.156 HD
ATOM     12  H   UNL     1      -4.007  -2.454  -0.181  0.00  0.00    +0.156 HD
BRANCH  10  13
ATOM     13  C   UNL     1      -5.066  -1.037   1.021  0.00  0.00    +0.035 A 
ATOM     14  C   UNL     1      -5.581   0.271   0.992  0.00  0.00    +0.037 A 
ATOM     15  C   UNL     1      -6.614   0.662   1.868  0.00  0.00    +0.075 A 
ATOM     16  C   UNL     1      -7.141  -0.292   2.769  0.00  0.00    +0.053 A 
ATOM     17 CL   UNL     1      -8.436   0.105   3.895  0.00  0.00    -0.083 Cl
ATOM     18  C   UNL     1      -6.643  -1.599   2.776  0.00  0.00    +0.022 A 
ATOM     19  C   UNL     1      -5.619  -1.970   1.905  0.00  0.00    +0.025 A 
BRANCH  15  20
ATOM     20  C   UNL     1      -7.158   2.074   1.835  0.00  0.00    +0.419 C 
ATOM     21  F   UNL     1      -8.503   2.046   1.513  0.00  0.00    -0.166 F 
ATOM     22  F   UNL     1      -6.999   2.663   3.076  0.00  0.00    -0.166 F 
ATOM     23  F   UNL     1      -6.504   2.857   0.898  0.00  0.00    -0.166 F 
ENDBRANCH  15  20
ENDBRANCH  10  13
ENDBRANCH   4   7
BRANCH   1  24
ATOM     24  O   UNL     1       2.821   1.353  -2.855  0.00  0.00    -0.456 OA
BRANCH  24  29
ATOM     25  C   UNL     1       5.558   0.486  -0.476  0.00  0.00    +0.129 A 
ATOM     26  N   UNL     1       6.366   1.565  -0.671  0.00  0.00    -0.250 NA
ATOM     27  C   UNL     1       6.052   2.554  -1.548  0.00  0.00    +0.115 A 
ATOM     28  C   UNL     1       4.867   2.488  -2.281  0.00  0.00    +0.066 A 
ATOM     29  C   UNL     1       4.001   1.408  -2.098  0.00  0.00    +0.132 A 
ATOM     30  C   UNL     1       4.357   0.388  -1.199  0.00  0.00    +0.079 A 
BRANCH  25  33
ATOM     31  C   UNL     1       7.605  -1.481   2.167  0.00  0.00    +0.128 C 
ATOM     32  N   UNL     1       7.191  -0.460   1.213  0.00  0.00    -0.313 N 
ATOM     33  C   UNL     1       5.957  -0.565   0.486  0.00  0.00    +0.262 C 
ATOM     34  O   UNL     1       5.208  -1.564   0.670  0.00  0.00    -0.269 OA
ATOM     35  H   UNL     1       7.817   0.363   1.066  0.00  0.00    +0.149 HD
ENDBRANCH  25  33
ENDBRANCH  24  29
ENDBRANCH   1  24
TORSDOF 6
