REMARK  Name = 
REMARK  10 active torsions:
REMARK  status: ('A' for Active; 'I' for Inactive)
REMARK    1  A    between atoms: C_1  and  C_2
REMARK    2  A    between atoms: C_2  and  C_3
REMARK    3  A    between atoms: C_2  and  N_4
REMARK    4  A    between atoms: N_4  and  C_5
REMARK    5  A    between atoms: C_5  and  C_6
REMARK    6  A    between atoms: C_6  and  O_7
REMARK    7  A    between atoms: C_6  and  C_8
REMARK    8  A    between atoms: C_11  and  N_12
REMARK    9  A    between atoms: N_12  and  S_13
REMARK   10  A    between atoms: S_13  and  C_14
REMARK                            x       y       z     vdW  Elec       q    Type
REMARK                         _______ _______ _______ _____ _____    ______ ____
ROOT
ATOM      1  C   UNL     1       0.129  -0.084   1.322  0.00  0.00    -0.018 A 
ATOM      2  C   UNL     1       0.551   0.707   0.242  0.00  0.00    +0.008 A 
ATOM      3  C   UNL     1       1.779   0.463  -0.380  0.00  0.00    +0.025 A 
ATOM      4  C   UNL     1       2.609  -0.582   0.066  0.00  0.00    +0.048 A 
ATOM      5  C   UNL     1       2.175  -1.383   1.134  0.00  0.00    +0.025 A 
ATOM      6  C   UNL     1       0.947  -1.139   1.755  0.00  0.00    +0.008 A 
ENDROOT
BRANCH   4   7
ATOM      7  N   UNL     1       3.879  -0.867  -0.549  0.00  0.00    -0.221 N 
ATOM      8  H   UNL     1       4.413  -1.708  -0.235  0.00  0.00    +0.173 HD
BRANCH   7   9
ATOM      9  S   UNL     1       4.655   0.149  -1.723  0.00  0.00    +0.040 S 
ATOM     10  C   UNL     1       5.044   1.732  -1.006  0.00  0.00    +0.218 C 
ATOM     11  O   UNL     1       5.936  -0.504  -2.159  0.00  0.00    -0.155 OA
ATOM     12  O   UNL     1       3.769   0.320  -2.925  0.00  0.00    -0.155 OA
ENDBRANCH   7   9
ENDBRANCH   4   7
BRANCH   1  13
ATOM     13  C   UNL     1      -1.220   0.165   1.965  0.00  0.00    +0.158 C 
BRANCH  13  14
ATOM     14  O   UNL     1      -1.111   0.097   3.364  0.00  0.00    -0.386 OA
ATOM     15  H   UNL     1      -0.625   0.913   3.653  0.00  0.00    +0.210 HD
ENDBRANCH  13  14
BRANCH  13  16
ATOM     16  C   UNL     1      -2.249  -0.869   1.490  0.00  0.00    +0.117 C 
BRANCH  16  17
ATOM     17  N   UNL     1      -2.405  -0.795   0.023  0.00  0.00    -0.311 NA
ATOM     18  H   UNL     1      -2.232  -1.755  -0.360  0.00  0.00    +0.122 HD
BRANCH  17  20
ATOM     19  C   UNL     1      -3.936  -0.612  -1.898  0.00  0.00    +0.023 C 
ATOM     20  C   UNL     1      -3.751  -0.357  -0.395  0.00  0.00    +0.048 C 
ATOM     21  C   UNL     1      -3.949   1.137  -0.104  0.00  0.00    +0.023 C 
ENDBRANCH  17  20
ENDBRANCH  16  17
ENDBRANCH  13  16
ENDBRANCH   1  13
TORSDOF 7
