REMARK  Name = 
REMARK  13 active torsions:
REMARK  status: ('A' for Active; 'I' for Inactive)
REMARK    1  A    between atoms: C_1  and  C_2
REMARK    2  A    between atoms: N_4  and  C_5
REMARK    3  A    between atoms: C_5  and  C_6
REMARK    4  A    between atoms: C_5  and  C_19
REMARK    5  A    between atoms: C_6  and  C_7
REMARK    6  A    between atoms: N_9  and  C_10
REMARK    7  A    between atoms: C_10  and  C_11
REMARK    8  A    between atoms: C_10  and  C_16
REMARK    9  A    between atoms: C_11  and  C_12
REMARK   10  A    between atoms: C_12  and  C_13
REMARK   11  A    between atoms: C_13  and  O_14
REMARK   12  A    between atoms: C_16  and  O_17
REMARK   13  A    between atoms: C_19  and  O_20
REMARK                            x       y       z     vdW  Elec       q    Type
REMARK                         _______ _______ _______ _____ _____    ______ ____
ROOT
ATOM      1  C   UNK A   1      -0.250   0.180   1.579  0.00  0.00    +0.216 C 
ATOM      2  O   UNK A   1      -0.273  -0.799   2.374  0.00  0.00    -0.276 OA
ATOM      3  N   UNK A   1       0.492   0.102   0.352  0.00  0.00    -0.302 N 
ATOM      4  H   UNK A   1       0.491   0.932  -0.286  0.00  0.00    +0.150 HD
ENDROOT
BRANCH   1   5
ATOM      5  C   UNK A   1      -1.031   1.420   1.914  0.00  0.00    +0.129 C 
BRANCH   5   6
ATOM      6  C   UNK A   1      -2.444   1.373   1.309  0.00  0.00    +0.190 C 
BRANCH   6  10
ATOM      7  C   UNK A   0      -2.562   0.434  -2.480  0.00  0.00    +0.109 C 
ATOM      8  C   UNK A   0      -2.740   0.324  -1.001  0.00  0.00    +0.211 C 
ATOM      9  O   UNK A   0      -3.238  -0.726  -0.511  0.00  0.00    -0.276 OA
ATOM     10  N   UNK A   1      -2.370   1.421  -0.154  0.00  0.00    -0.302 N 
ATOM     11  H   UNK A   1      -1.949   2.265  -0.602  0.00  0.00    +0.150 HD
ENDBRANCH   6  10
BRANCH   6  12
ATOM     12  C   UNK A   1      -3.261   2.529   1.816  0.00  0.00    +0.326 C 
ATOM     13  O   UNK A   1      -3.067   3.693   1.370  0.00  0.00    -0.249 OA
BRANCH  12  14
ATOM     14  O   UNK A   1      -4.200   2.320   2.825  0.00  0.00    -0.479 OA
ATOM     15  H   UNK A   1      -4.746   3.091   3.194  0.00  0.00    +0.295 HD
ENDBRANCH  12  14
ENDBRANCH   6  12
ENDBRANCH   5   6
ENDBRANCH   1   5
BRANCH   3  16
ATOM     16  C   UNK A   1       1.397  -1.013   0.052  0.00  0.00    +0.182 C 
BRANCH  16  17
ATOM     17  C   UNK A   1       1.453  -1.233  -1.433  0.00  0.00    +0.325 C 
ATOM     18  O   UNK A   1       0.399  -1.784  -1.868  0.00  0.00    -0.249 OA
BRANCH  17  19
ATOM     19  O   UNK A   1       0.436  -1.258  -2.458  0.00  0.00    -0.479 OA
ATOM     20  H   UNK A   1       0.533  -0.582  -3.365  0.00  0.00    +0.295 HD
ENDBRANCH  17  19
ENDBRANCH  16  17
BRANCH  16  21
ATOM     21  C   UNK A   1       2.797  -0.695   0.613  0.00  0.00    +0.045 C 
BRANCH  21  22
ATOM     22  C   UNK A   1       3.761  -1.895   0.586  0.00  0.00    +0.123 C 
BRANCH  22  23
ATOM     23  C   UNK A   1       4.321  -2.143  -0.781  0.00  0.00    +0.305 C 
ATOM     24  O   UNK A   1       5.145  -1.330  -1.282  0.00  0.00    -0.251 OA
BRANCH  23  25
ATOM     25  O   UNK A   1       3.916  -3.260  -1.507  0.00  0.00    -0.481 OA
ATOM     26  H   UNK A   1       4.280  -3.433  -2.437  0.00  0.00    +0.295 HD
ENDBRANCH  23  25
ENDBRANCH  22  23
ENDBRANCH  21  22
ENDBRANCH  16  21
ENDBRANCH   3  16
TORSDOF 12
