REMARK  Name = 
REMARK  7 active torsions:
REMARK  status: ('A' for Active; 'I' for Inactive)
REMARK    1  A    between atoms: C_1  and  C_2
REMARK    2  A    between atoms: N_4  and  C_9
REMARK    3  A    between atoms: C_6  and  C_7
REMARK    4  A    between atoms: C_12  and  N_13
REMARK    5  A    between atoms: C_17  and  C_26
REMARK    6  A    between atoms: N_19  and  C_20
REMARK    7  A    between atoms: C_26  and  O_27
REMARK                            x       y       z     vdW  Elec       q    Type
REMARK                         _______ _______ _______ _____ _____    ______ ____
ROOT
ATOM      1  C   UNL     1      -0.705   0.059   0.384  0.00  0.00    +0.105 A 
ATOM      2  C   UNL     1      -0.712   0.740   1.600  0.00  0.00    +0.168 A 
ATOM      3  F   UNL     1      -1.897   1.101   2.160  0.00  0.00    -0.201 F 
ATOM      4  C   UNL     1       0.477   1.002   2.281  0.00  0.00    +0.075 A 
ATOM      5  C   UNL     1       1.734   0.687   1.673  0.00  0.00    +0.072 A 
ATOM      6  C   UNL     1       2.974   1.073   2.240  0.00  0.00    +0.205 A 
ATOM      7  O   UNL     1       3.019   1.886   3.201  0.00  0.00    -0.286 OA
ATOM      8  C   UNL     1       4.179   0.593   1.699  0.00  0.00    +0.122 A 
ATOM      9  C   UNL     1       4.133  -0.143   0.515  0.00  0.00    +0.105 A 
ATOM     10  N   UNL     1       2.963  -0.347  -0.159  0.00  0.00    -0.340 N 
ATOM     11  C   UNL     1       1.750  -0.013   0.424  0.00  0.00    +0.092 A 
ATOM     12  C   UNL     1       0.508  -0.355  -0.177  0.00  0.00    +0.171 A 
ATOM     13  F   UNL     1       0.437  -1.140  -1.283  0.00  0.00    -0.201 F 
ENDROOT
BRANCH   1  17
ATOM     14  C   UNL     1      -4.021   2.013  -1.713  0.00  0.00    +0.025 C 
ATOM     15  C   UNL     1      -3.725   0.510  -1.842  0.00  0.00    +0.068 C 
ATOM     16  C   UNL     1      -2.213   0.223  -1.620  0.00  0.00    +0.123 C 
ATOM     17  N   UNL     1      -1.949  -0.264  -0.260  0.00  0.00    -0.322 N 
ATOM     18  C   UNL     1      -2.793  -1.318   0.318  0.00  0.00    +0.123 C 
ATOM     19  C   UNL     1      -4.030  -1.563  -0.561  0.00  0.00    +0.068 C 
ATOM     20  C   UNL     1      -5.072  -2.416   0.169  0.00  0.00    +0.025 C 
ATOM     21  N   UNL     1      -4.618  -0.273  -0.953  0.00  0.00    -0.308 NA
ATOM     22  H   UNL     1      -4.841   0.270  -0.080  0.00  0.00    +0.123 HD
ENDBRANCH   1  17
BRANCH   4  23
ATOM     23  N   UNL     1       0.349   1.515   3.615  0.00  0.00    -0.355 N 
ATOM     24  H   UNL     1       1.021   1.265   4.380  0.00  0.00    +0.142 HD
ATOM     25  H   UNL     1       1.014   1.271   4.382  0.00  0.00    +0.142 HD
ENDBRANCH   4  23
BRANCH  10  26
ATOM     26  C   UNL     1       3.058  -1.006  -1.477  0.00  0.00    +0.088 C 
ATOM     27  C   UNL     1       2.648  -0.117  -2.646  0.00  0.00    +0.027 C 
ATOM     28  C   UNL     1       4.111  -0.431  -2.426  0.00  0.00    +0.027 C 
ENDBRANCH  10  26
BRANCH   8  29
ATOM     29  C   UNL     1       5.499   0.872   2.331  0.00  0.00    +0.342 C 
ATOM     30  O   UNL     1       5.575   1.365   3.488  0.00  0.00    -0.245 OA
BRANCH  29  31
ATOM     31  O   UNL     1       6.675   0.570   1.648  0.00  0.00    -0.477 OA
ATOM     32  H   UNL     1       7.581   0.741   2.068  0.00  0.00    +0.295 HD
ENDBRANCH  29  31
ENDBRANCH   8  29
TORSDOF 5
