REMARK  Name = 
REMARK  8 active torsions:
REMARK  status: ('A' for Active; 'I' for Inactive)
REMARK    1  A    between atoms: C_3  and  C_4
REMARK    2  A    between atoms: C_8  and  O_9
REMARK    3  A    between atoms: C_12  and  N_13
REMARK    4  A    between atoms: N_13  and  C_14
REMARK    5  A    between atoms: C_15  and  O_16
REMARK    6  A    between atoms: C_17  and  N_18
REMARK    7  A    between atoms: N_18  and  C_19
REMARK    8  A    between atoms: C_20  and  O_21
REMARK                            x       y       z     vdW  Elec       q    Type
REMARK                         _______ _______ _______ _____ _____    ______ ____
ROOT
ATOM      1  C   UNL     1       2.090  -0.592  -1.218  0.00  0.00    +0.319 C 
ATOM      2  O   UNL     1       2.795  -0.714   0.010  0.00  0.00    -0.343 OA
ATOM      3  C   UNL     1       4.069  -0.105  -0.088  0.00  0.00    +0.126 C 
ATOM      4  C   UNL     1       4.877  -0.453   1.161  0.00  0.00    +0.038 C 
ATOM      5  C   UNL     1       3.924   1.417  -0.222  0.00  0.00    +0.111 C 
ATOM      6  C   UNL     1       2.979   1.739  -1.342  0.00  0.00    +0.199 C 
ATOM      7  O   UNL     1       3.155   2.751  -2.004  0.00  0.00    -0.291 OA
ATOM      8  C   UNL     1       1.742   0.899  -1.548  0.00  0.00    +0.281 C 
ATOM      9  O   UNL     1       0.745   1.405  -0.673  0.00  0.00    -0.331 OA
ATOM     10  C   UNL     1      -0.402   0.574  -0.651  0.00  0.00    +0.173 C 
ATOM     11  C   UNL     1      -1.419   1.158   0.351  0.00  0.00    +0.115 C 
ATOM     12  C   UNL     1      -2.678   0.249   0.487  0.00  0.00    +0.153 C 
ATOM     13  C   UNL     1      -2.304  -1.229   0.809  0.00  0.00    +0.115 C 
ATOM     14  C   UNL     1      -1.246  -1.774  -0.186  0.00  0.00    +0.165 C 
ATOM     15  C   UNL     1      -0.005  -0.859  -0.240  0.00  0.00    +0.182 C 
ATOM     16  O   UNL     1       0.919  -1.387  -1.173  0.00  0.00    -0.338 OA
ENDROOT
BRANCH  11  17
ATOM     17  N   UNL     1      -1.758   2.538  -0.053  0.00  0.00    -0.312 NA
ATOM     18  C   UNL     1      -2.431   3.288   1.010  0.00  0.00    +0.101 C 
ATOM     19  H   UNL     1      -2.369   2.532  -0.903  0.00  0.00    +0.122 HD
ENDBRANCH  11  17
BRANCH  13  20
ATOM     20  N   UNL     1      -3.505  -2.098   0.789  0.00  0.00    -0.312 NA
ATOM     21  C   UNL     1      -3.524  -3.035   1.917  0.00  0.00    +0.101 C 
ATOM     22  H   UNL     1      -4.377  -1.524   0.876  0.00  0.00    +0.122 HD
ENDBRANCH  13  20
BRANCH   8  23
ATOM     23  O   UNL     1       1.336   1.049  -2.894  0.00  0.00    -0.355 OA
ATOM     24  H   UNL     1       0.797   0.261  -3.161  0.00  0.00    +0.213 HD
ENDBRANCH   8  23
BRANCH  12  25
ATOM     25  O   UNL     1      -3.528   0.348  -0.632  0.00  0.00    -0.389 OA
ATOM     26  H   UNL     1      -3.055  -0.020  -1.420  0.00  0.00    +0.210 HD
ENDBRANCH  12  25
BRANCH  14  27
ATOM     27  O   UNL     1      -0.864  -3.084   0.155  0.00  0.00    -0.387 OA
ATOM     28  H   UNL     1      -0.420  -3.047   1.043  0.00  0.00    +0.210 HD
ENDBRANCH  14  27
TORSDOF 5
