REMARK  Name = 
REMARK  18 active torsions:
REMARK  status: ('A' for Active; 'I' for Inactive)
REMARK    1  A    between atoms: C_1  and  C_2
REMARK    2  A    between atoms: C_2  and  C_3
REMARK    3  A    between atoms: C_7  and  O_8
REMARK    4  A    between atoms: O_8  and  C_9
REMARK    5  A    between atoms: C_12  and  N_16
REMARK    6  A    between atoms: C_13  and  C_14
REMARK    7  A    between atoms: N_16  and  C_17
REMARK    8  A    between atoms: N_16  and  C_18
REMARK    9  A    between atoms: C_19  and  C_20
REMARK   10  A    between atoms: C_28  and  O_39
REMARK   11  A    between atoms: O_39  and  C_40
REMARK   12  A    between atoms: C_42  and  C_43
REMARK   13  A    between atoms: C_44  and  O_45
REMARK   14  A    between atoms: O_45  and  C_46
REMARK   15  A    between atoms: C_47  and  O_48
REMARK   16  A    between atoms: O_48  and  C_49
REMARK   17  A    between atoms: C_50  and  O_51
REMARK   18  A    between atoms: O_51  and  C_52
REMARK                            x       y       z     vdW  Elec       q    Type
REMARK                         _______ _______ _______ _____ _____    ______ ____
ROOT
ATOM      1  C   UNL     1       3.813  -4.793  -0.266  0.00  0.00    +0.176 C 
ATOM      2  C   UNL     1       4.933  -4.019   0.460  0.00  0.00    +0.045 C 
ATOM      3  C   UNL     1       4.483  -2.610   0.892  0.00  0.00    +0.006 C 
ATOM      4  C   UNL     1       4.858  -1.546  -0.157  0.00  0.00    +0.032 C 
ATOM      5  C   UNL     1       4.254  -0.147   0.125  0.00  0.00    +0.132 C 
ATOM      6  C   UNL     1       2.707  -0.097  -0.050  0.00  0.00    +0.086 C 
ATOM      7  C   UNL     1       2.207   1.353   0.053  0.00  0.00    +0.018 C 
ATOM      8  C   UNL     1       2.219  -0.700  -1.353  0.00  0.00    +0.164 C 
ATOM      9  O   UNL     1       2.856  -0.467  -2.416  0.00  0.00    -0.292 OA
ATOM     10  C   UNL     1       0.966  -1.495  -1.429  0.00  0.00    -0.004 C 
ATOM     11  C   UNL     1      -0.013  -1.411  -0.535  0.00  0.00    -0.015 C 
ATOM     12  C   UNL     1      -1.259  -2.092  -0.974  0.00  0.00    +0.023 C 
ATOM     13  C   UNL     1      -2.349  -1.058  -1.311  0.00  0.00    +0.006 C 
ATOM     14  C   UNL     1      -3.021  -0.331  -0.160  0.00  0.00    +0.036 C 
ATOM     15  C   UNL     1      -4.340   0.168  -0.775  0.00  0.00    +0.120 C 
ATOM     16  C   UNL     1      -4.611  -0.728  -2.004  0.00  0.00    +0.039 C 
ATOM     17  C   UNL     1      -3.499  -1.767  -1.988  0.00  0.00    +0.018 C 
ATOM     18  C   UNL     1      -3.038  -2.284  -3.320  0.00  0.00    -0.027 C 
ATOM     19  C   UNL     1      -1.810  -2.825  -3.426  0.00  0.00    -0.026 C 
ATOM     20  C   UNL     1      -0.830  -2.878  -2.250  0.00  0.00    +0.027 C 
ATOM     21  C   UNL     1       0.552  -2.293  -2.633  0.00  0.00    +0.040 C 
ATOM     22  C   UNL     1       1.575  -3.373  -3.063  0.00  0.00    +0.129 C 
ATOM     23  C   UNL     1       2.046  -4.260  -1.944  0.00  0.00    +0.308 C 
ATOM     24  O   UNL     1       1.331  -5.230  -1.563  0.00  0.00    -0.251 OA
ATOM     25  O   UNL     1       3.279  -4.002  -1.332  0.00  0.00    -0.461 OA
ENDROOT
BRANCH   1  27
ATOM     26  C   UNL     1       5.197  -6.069  -2.019  0.00  0.00    +0.007 C 
ATOM     27  C   UNL     1       4.308  -6.165  -0.777  0.00  0.00    +0.041 C 
ENDBRANCH   1  27
BRANCH   5  28
ATOM     28  O   UNL     1       4.556   0.223   1.464  0.00  0.00    -0.347 OA
BRANCH  28  29
ATOM     29  C   UNL     1       5.611   1.160   1.549  0.00  0.00    +0.251 C 
ATOM     30  C   UNL     1       5.659   1.655   3.007  0.00  0.00    +0.063 C 
ATOM     31  C   UNL     1       6.855   2.576   3.290  0.00  0.00    +0.026 C 
ATOM     32  C   UNL     1       7.844   2.645   2.100  0.00  0.00    +0.085 C 
ATOM     33  C   UNL     1       8.021   1.179   1.567  0.00  0.00    +0.135 C 
ATOM     34  C   UNL     1       8.723   0.272   2.589  0.00  0.00    +0.039 C 
ATOM     35  O   UNL     1       6.824   0.538   1.133  0.00  0.00    -0.347 OA
BRANCH  32  36
ATOM     36  N   UNL     1       7.373   3.603   1.048  0.00  0.00    -0.303 NA
ATOM     37  C   UNL     1       7.364   4.995   1.550  0.00  0.00    +0.105 C 
ATOM     38  C   UNL     1       8.211   3.547  -0.170  0.00  0.00    +0.105 C 
ENDBRANCH  32  36
ENDBRANCH  28  29
ENDBRANCH   5  28
BRANCH  15  39
ATOM     39  O   UNL     1      -5.399   0.046   0.165  0.00  0.00    -0.371 OA
BRANCH  39  40
ATOM     40  C   UNL     1      -5.984   1.301   0.485  0.00  0.00    +0.150 C 
ATOM     41  C   UNL     1      -6.564   1.226   1.921  0.00  0.00    +0.040 C 
ATOM     42  C   UNL     1      -8.076   0.943   1.936  0.00  0.00    +0.020 C 
ATOM     43  C   UNL     1      -8.585   0.758   3.375  0.00  0.00    +0.010 C 
ATOM     44  C   UNL     1      -8.862   2.071   1.215  0.00  0.00    +0.152 C 
ATOM     45  C   UNL     1      -8.084   2.675   0.005  0.00  0.00    +0.178 C 
ATOM     46  C   UNL     1      -7.063   1.671  -0.574  0.00  0.00    +0.178 C 
BRANCH  44  47
ATOM     47  O   UNL     1     -10.096   1.528   0.767  0.00  0.00    -0.377 OA
ATOM     48  C   UNL     1     -11.143   2.463   0.923  0.00  0.00    +0.194 C 
ENDBRANCH  44  47
BRANCH  45  49
ATOM     49  O   UNL     1      -7.386   3.843   0.424  0.00  0.00    -0.375 OA
ATOM     50  C   UNL     1      -8.004   5.011  -0.076  0.00  0.00    +0.194 C 
ENDBRANCH  45  49
BRANCH  46  51
ATOM     51  O   UNL     1      -6.422   2.245  -1.701  0.00  0.00    -0.375 OA
ATOM     52  C   UNL     1      -7.062   1.870  -2.900  0.00  0.00    +0.194 C 
ENDBRANCH  46  51
ENDBRANCH  39  40
ENDBRANCH  15  39
TORSDOF 9
