REMARK  Name = 
REMARK  13 active torsions:
REMARK  status: ('A' for Active; 'I' for Inactive)
REMARK    1  A    between atoms: C_1  and  C_2
REMARK    2  A    between atoms: C_2  and  O_3
REMARK    3  A    between atoms: O_3  and  C_4
REMARK    4  A    between atoms: C_4  and  C_6
REMARK    5  A    between atoms: C_6  and  C_7
REMARK    6  A    between atoms: C_6  and  N_15
REMARK    7  A    between atoms: C_7  and  C_8
REMARK    8  A    between atoms: C_8  and  C_9
REMARK    9  A    between atoms: N_15  and  CA_16
REMARK   10  A    between atoms: CA_16  and  CB_17
REMARK   11  A    between atoms: CA_16  and  C_18
REMARK   12  A    between atoms: C_24  and  C_25
REMARK   13  A    between atoms: C_25  and  O_26
REMARK                            x       y       z     vdW  Elec       q    Type
REMARK                         _______ _______ _______ _____ _____    ______ ____
ROOT
ATOM      1  CA  ALA A   1       0.764  -0.616  -0.284  0.00  0.00    +0.138 C 
ATOM      2  CB  ALA A   1       0.810  -0.481  -1.819  0.00  0.00    +0.034 C 
ENDROOT
BRANCH   1   3
ATOM      3  C   ALA A   1       1.390   0.605   0.343  0.00  0.00    +0.233 C 
ATOM      4  O   ALA A   1       0.652   1.592   0.605  0.00  0.00    -0.274 OA
ATOM      5  N   UNK A   2       2.800   0.695   0.620  0.00  0.00    -0.285 N 
ATOM      6  C   UNK A   2       3.769  -0.353   0.337  0.00  0.00    +0.137 C 
ATOM      7  C   UNK A   2       5.143   0.285   0.579  0.00  0.00    +0.080 C 
ATOM      8  C   UNK A   2       4.862   1.461   1.524  0.00  0.00    +0.064 C 
ATOM      9  C   UNK A   2       3.401   1.847   1.281  0.00  0.00    +0.187 C 
ATOM     10  S   UNK A   2       6.300  -0.916   1.354  0.00  0.00    -0.141 S 
ATOM     11  C   UNK A   2       7.484  -0.935  -0.022  0.00  0.00    +0.081 C 
ATOM     12  C   UNK A   2       6.765  -0.585  -1.304  0.00  0.00    +0.081 C 
ATOM     13  S   UNK A   2       5.822   0.925  -1.003  0.00  0.00    -0.141 S 
BRANCH   9  14
ATOM     14  C   UNK A   2       3.291   3.076   0.422  0.00  0.00    +0.326 C 
ATOM     15  O   UNK A   2       3.206   4.211   0.965  0.00  0.00    -0.249 OA
BRANCH  14  16
ATOM     16  O   UNK A   2       3.323   2.973  -0.966  0.00  0.00    -0.479 OA
ATOM     17  H   UNK A   2       3.256   3.797  -1.550  0.00  0.00    +0.295 HD
ENDBRANCH  14  16
ENDBRANCH   9  14
ENDBRANCH   1   3
BRANCH   1  18
ATOM     18  N   ALA A   1      -0.579  -0.813   0.330  0.00  0.00    -0.294 NA
ATOM     19  H   ALA A   1      -0.521  -1.653   0.958  0.00  0.00    +0.123 HD
BRANCH  18  20
ATOM     20  C   UNK A   0      -1.768  -0.943  -0.543  0.00  0.00    +0.164 C 
BRANCH  20  21
ATOM     21  C   UNK A   0      -2.092   0.382  -1.183  0.00  0.00    +0.324 C 
ATOM     22  O   UNK A   0      -2.278   0.444  -2.430  0.00  0.00    -0.249 OA
BRANCH  21  23
ATOM     23  O   UNK A   0      -2.242   1.520  -0.385  0.00  0.00    -0.464 OA
BRANCH  23  25
ATOM     24  C   UNK A   0      -1.244   3.459  -1.447  0.00  0.00    +0.048 C 
ATOM     25  C   UNK A   0      -2.516   2.816  -0.910  0.00  0.00    +0.229 C 
ENDBRANCH  23  25
ENDBRANCH  21  23
ENDBRANCH  20  21
BRANCH  20  26
ATOM     26  C   UNK A   0      -2.973  -1.396   0.312  0.00  0.00    +0.035 C 
BRANCH  26  27
ATOM     27  C   UNK A   0      -4.247  -1.656  -0.506  0.00  0.00    +0.037 C 
BRANCH  27  28
ATOM     28  C   UNK A   0      -5.385  -1.988   0.419  0.00  0.00    -0.047 A 
ATOM     29  C   UNK A   0      -5.596  -3.312   0.834  0.00  0.00    +0.003 A 
ATOM     30  C   UNK A   0      -6.595  -3.605   1.768  0.00  0.00    +0.000 A 
ATOM     31  C   UNK A   0      -7.379  -2.577   2.301  0.00  0.00    +0.000 A 
ATOM     32  C   UNK A   0      -7.168  -1.255   1.901  0.00  0.00    +0.000 A 
ATOM     33  C   UNK A   0      -6.173  -0.960   0.967  0.00  0.00    +0.003 A 
ENDBRANCH  27  28
ENDBRANCH  26  27
ENDBRANCH  20  26
ENDBRANCH  18  20
ENDBRANCH   1  18
TORSDOF 11
