REMARK  Name = 
REMARK  5 active torsions:
REMARK  status: ('A' for Active; 'I' for Inactive)
REMARK    1  A    between atoms: C_10  and  C_11
REMARK    2  A    between atoms: C_16  and  S_26
REMARK    3  A    between atoms: C_24  and  C_25
REMARK    4  A    between atoms: S_26  and  C_27
REMARK    5  A    between atoms: C_27  and  C_28
REMARK                            x       y       z     vdW  Elec       q    Type
REMARK                         _______ _______ _______ _____ _____    ______ ____
ROOT
ATOM      1  C   UNL     1       1.173   0.761  -0.037  0.00  0.00    +0.003 C 
ATOM      2  C   UNL     1       1.806   2.104  -0.433  0.00  0.00    +0.008 C 
ATOM      3  C   UNL     1       3.328   1.918  -0.296  0.00  0.00    +0.049 C 
ATOM      4  C   UNL     1       3.558   0.442   0.108  0.00  0.00    +0.120 C 
ATOM      5  C   UNL     1       3.861   0.356   1.642  0.00  0.00    +0.060 C 
ATOM      6  C   UNL     1       5.390   0.344   1.750  0.00  0.00    +0.124 C 
ATOM      7  C   UNL     1       5.792  -0.063   0.390  0.00  0.00    +0.308 C 
ATOM      8  O   UNL     1       6.966  -0.376   0.062  0.00  0.00    -0.251 OA
ATOM      9  O   UNL     1       4.744  -0.044  -0.504  0.00  0.00    -0.457 OA
ATOM     10  C   UNL     1       2.270  -0.269  -0.418  0.00  0.00    +0.011 C 
ATOM     11  C   UNL     1       2.431  -0.458  -1.970  0.00  0.00    +0.015 C 
ATOM     12  C   UNL     1       1.920  -1.645   0.204  0.00  0.00    +0.011 C 
ATOM     13  C   UNL     1       0.526  -2.131  -0.239  0.00  0.00    +0.005 C 
ATOM     14  C   UNL     1      -0.566  -1.073   0.082  0.00  0.00    +0.003 C 
ATOM     15  C   UNL     1      -0.240   0.332  -0.574  0.00  0.00    +0.010 C 
ATOM     16  C   UNL     1      -1.466   1.327  -0.429  0.00  0.00    +0.062 C 
ATOM     17  C   UNL     1      -2.447   0.911   0.676  0.00  0.00    +0.046 C 
ATOM     18  C   UNL     1      -2.976  -0.483   0.420  0.00  0.00    -0.059 C 
ATOM     19  C   UNL     1      -4.219  -0.789   0.835  0.00  0.00    +0.046 C 
ATOM     20  C   UNL     1      -4.713  -2.173   0.844  0.00  0.00    +0.156 C 
ATOM     21  O   UNL     1      -5.920  -2.400   1.126  0.00  0.00    -0.293 OA
ATOM     22  C   UNL     1      -3.802  -3.318   0.517  0.00  0.00    +0.080 C 
ATOM     23  C   UNL     1      -2.324  -2.900   0.575  0.00  0.00    +0.019 C 
ATOM     24  C   UNL     1      -2.045  -1.552  -0.163  0.00  0.00    -0.007 C 
ATOM     25  C   UNL     1      -2.333  -1.737  -1.677  0.00  0.00    +0.016 C 
ENDROOT
BRANCH  16  26
ATOM     26  S   UNL     1      -1.065   3.115  -0.282  0.00  0.00    -0.084 S 
BRANCH  26  27
ATOM     27  C   UNL     1      -2.665   3.751  -0.807  0.00  0.00    +0.187 C 
ATOM     28  C   UNL     1      -3.631   4.283   0.204  0.00  0.00    +0.099 C 
ATOM     29  O   UNL     1      -2.960   3.763  -1.993  0.00  0.00    -0.286 OA
ENDBRANCH  26  27
ENDBRANCH  16  26
TORSDOF 2
