REMARK  Name = 
REMARK  4 active torsions:
REMARK  status: ('A' for Active; 'I' for Inactive)
REMARK    1  A    between atoms: C_1  and  C_2
REMARK    2  A    between atoms: C_2  and  O_3
REMARK    3  A    between atoms: C_18  and  C_19
REMARK    4  A    between atoms: C_23  and  C_24
REMARK                            x       y       z     vdW  Elec       q    Type
REMARK                         _______ _______ _______ _____ _____    ______ ____
ROOT
ATOM      1  C   UNL     1      -4.228   0.580  -1.723  0.00  0.00    +0.042 C 
ATOM      2  C   UNL     1      -4.050  -0.069  -0.324  0.00  0.00    +0.069 C 
ATOM      3  C   UNL     1      -4.051  -1.622  -0.461  0.00  0.00    +0.035 C 
ATOM      4  C   UNL     1      -2.595  -2.102  -0.343  0.00  0.00    +0.007 C 
ATOM      5  C   UNL     1      -1.763  -0.826  -0.302  0.00  0.00    +0.001 C 
ATOM      6  C   UNL     1      -0.344  -0.916   0.324  0.00  0.00    -0.004 C 
ATOM      7  C   UNL     1       0.564  -1.769  -0.575  0.00  0.00    +0.004 C 
ATOM      8  C   UNL     1       1.988  -1.919  -0.027  0.00  0.00    +0.005 C 
ATOM      9  C   UNL     1       2.471  -0.747   0.867  0.00  0.00    +0.001 C 
ATOM     10  C   UNL     1       4.025  -0.704   0.864  0.00  0.00    +0.061 C 
ATOM     11  C   UNL     1       4.525  -0.011  -0.366  0.00  0.00    +0.066 A 
ATOM     12  N   UNL     1       5.787  -0.045  -0.833  0.00  0.00    -0.179 NA
ATOM     13  N   UNL     1       5.824   0.735  -1.906  0.00  0.00    -0.284 N 
ATOM     14  C   UNL     1       4.609   1.276  -2.126  0.00  0.00    +0.108 A 
ATOM     15  C   UNL     1       3.762   0.828  -1.139  0.00  0.00    -0.006 A 
ATOM     16  C   UNL     1       2.294   1.074  -0.955  0.00  0.00    +0.045 C 
ATOM     17  C   UNL     1       1.821   0.636   0.475  0.00  0.00    -0.022 C 
ATOM     18  C   UNL     1       2.300   1.721   1.486  0.00  0.00    +0.012 C 
ATOM     19  C   UNL     1       0.246   0.522   0.593  0.00  0.00    -0.001 C 
ATOM     20  C   UNL     1      -0.528   1.633  -0.179  0.00  0.00    +0.005 C 
ATOM     21  C   UNL     1      -2.046   1.655   0.143  0.00  0.00    +0.010 C 
ATOM     22  C   UNL     1      -2.667   0.230   0.360  0.00  0.00    -0.000 C 
ATOM     23  C   UNL     1      -2.812  -0.022   1.901  0.00  0.00    +0.014 C 
ATOM     24  H   UNL     1       6.677   0.894  -2.485  0.00  0.00    +0.188 HD
ENDROOT
BRANCH   2  25
ATOM     25  O   UNL     1      -5.115   0.356   0.497  0.00  0.00    -0.388 OA
ATOM     26  H   UNL     1      -5.959   0.018   0.098  0.00  0.00    +0.210 HD
ENDBRANCH   2  25
TORSDOF 1
