REMARK  Name = 
REMARK  4 active torsions:
REMARK  status: ('A' for Active; 'I' for Inactive)
REMARK    1  A    between atoms: C_1  and  C_2
REMARK    2  A    between atoms: N_4  and  C_5
REMARK    3  A    between atoms: C_7  and  C_8
REMARK    4  A    between atoms: C_8  and  O_9
REMARK                            x       y       z     vdW  Elec       q    Type
REMARK                         _______ _______ _______ _____ _____    ______ ____
ROOT
ATOM      1  C   UNL     1      -2.739   2.004   0.758  0.00  0.00    +0.051 C 
ATOM      2  C   UNL     1      -2.326   0.690   0.156  0.00  0.00    +0.030 A 
ATOM      3  C   UNL     1      -1.019   0.216   0.305  0.00  0.00    +0.102 A 
ATOM      4  N   UNL     1      -0.633  -0.974  -0.250  0.00  0.00    -0.270 N 
ATOM      5  C   UNL     1      -1.531  -1.688  -1.003  0.00  0.00    +0.332 A 
ATOM      6  O   UNL     1      -1.188  -2.769  -1.558  0.00  0.00    -0.246 OA
ATOM      7  N   UNL     1      -2.805  -1.237  -1.167  0.00  0.00    -0.275 N 
ATOM      8  C   UNL     1      -3.218  -0.070  -0.609  0.00  0.00    +0.257 A 
ATOM      9  O   UNL     1      -4.403   0.324  -0.789  0.00  0.00    -0.267 OA
ATOM     10  H   UNL     1      -3.477  -1.796  -1.742  0.00  0.00    +0.173 HD
ENDROOT
BRANCH   4  11
ATOM     11  C   UNL     1       0.760  -1.445  -0.104  0.00  0.00    +0.248 C 
ATOM     12  O   UNL     1       1.321  -1.042   1.135  0.00  0.00    -0.343 OA
ATOM     13  C   UNL     1       2.626  -0.573   0.842  0.00  0.00    +0.169 C 
ATOM     14  C   UNL     1       2.699  -0.383  -0.629  0.00  0.00    +0.007 C 
ATOM     15  C   UNL     1       1.620  -0.880  -1.173  0.00  0.00    +0.025 C 
BRANCH  13  16
ATOM     16  C   UNL     1       2.920   0.725   1.600  0.00  0.00    +0.191 C 
BRANCH  16  17
ATOM     17  O   UNL     1       2.047   1.744   1.197  0.00  0.00    -0.392 OA
ATOM     18  H   UNL     1       2.290   2.542   1.734  0.00  0.00    +0.210 HD
ENDBRANCH  16  17
ENDBRANCH  13  16
ENDBRANCH   4  11
TORSDOF 3
