REMARK  Name = 
REMARK  8 active torsions:
REMARK  status: ('A' for Active; 'I' for Inactive)
REMARK    1  A    between atoms: C_1  and  C_2
REMARK    2  A    between atoms: C_2  and  S_3
REMARK    3  A    between atoms: C_2  and  C_11
REMARK    4  A    between atoms: S_3  and  C_4
REMARK    5  A    between atoms: C_4  and  C_6
REMARK    6  A    between atoms: N_13  and  C_14
REMARK    7  A    between atoms: C_14  and  C_15
REMARK    8  A    between atoms: C_15  and  O_16
REMARK                            x       y       z     vdW  Elec       q    Type
REMARK                         _______ _______ _______ _____ _____    ______ ____
ROOT
ATOM      1  C   UNL     1       0.310  -2.561   0.776  0.00  0.00    +0.029 C 
ATOM      2  C   UNL     1       0.152  -1.079   0.431  0.00  0.00    +0.137 C 
ENDROOT
BRANCH   2   3
ATOM      3  C   UNL     1      -1.138  -0.543   0.987  0.00  0.00    +0.227 C 
ATOM      4  O   UNL     1      -1.101   0.332   1.895  0.00  0.00    -0.275 OA
ATOM      5  N   UNL     1      -2.402  -1.023   0.502  0.00  0.00    -0.304 N 
ATOM      6  H   UNL     1      -2.421  -1.775  -0.222  0.00  0.00    +0.149 HD
BRANCH   5   7
ATOM      7  C   UNL     1      -3.676  -0.497   0.986  0.00  0.00    +0.224 C 
BRANCH   7   8
ATOM      8  C   UNL     1      -3.904   0.878   0.448  0.00  0.00    +0.322 C 
ATOM      9  O   UNL     1      -4.232   1.036  -0.759  0.00  0.00    -0.249 OA
BRANCH   8  10
ATOM     10  O   UNL     1      -3.723   1.986   1.270  0.00  0.00    -0.480 OA
ATOM     11  H   UNL     1      -3.860   2.924   0.915  0.00  0.00    +0.295 HD
ENDBRANCH   8  10
ENDBRANCH   7   8
ENDBRANCH   5   7
ENDBRANCH   2   3
BRANCH   2  12
ATOM     12  S   UNL     1       0.182  -0.827  -1.383  0.00  0.00    -0.070 S 
BRANCH  12  13
ATOM     13  C   UNL     1       1.972  -0.881  -1.527  0.00  0.00    +0.227 C 
ATOM     14  O   UNL     1       2.532  -1.975  -1.802  0.00  0.00    -0.279 OA
BRANCH  13  15
ATOM     15  C   UNL     1       2.784   0.332  -1.345  0.00  0.00    +0.066 A 
ATOM     16  C   UNL     1       2.313   1.603  -1.032  0.00  0.00    +0.020 A 
ATOM     17  C   UNL     1       3.332   2.555  -0.913  0.00  0.00    +0.008 A 
ATOM     18  C   UNL     1       4.604   2.042  -1.129  0.00  0.00    +0.046 A 
ATOM     19  S   UNL     1       4.460   0.402  -1.468  0.00  0.00    -0.093 S 
ENDBRANCH  13  15
ENDBRANCH  12  13
ENDBRANCH   2  12
TORSDOF 7
