REMARK  Name = 
REMARK  18 active torsions:
REMARK  status: ('A' for Active; 'I' for Inactive)
REMARK    1  A    between atoms: C_1  and  N_2
REMARK    2  A    between atoms: N_2  and  C_3
REMARK    3  A    between atoms: C_4  and  O_5
REMARK    4  A    between atoms: C_6  and  O_7
REMARK    5  A    between atoms: C_8  and  C_9
REMARK    6  A    between atoms: C_9  and  O_10
REMARK    7  A    between atoms: C_12  and  O_13
REMARK    8  A    between atoms: O_13  and  C_14
REMARK    9  A    between atoms: C_15  and  O_16
REMARK   10  A    between atoms: O_16  and  C_17
REMARK   11  A    between atoms: C_18  and  O_19
REMARK   12  A    between atoms: C_20  and  O_21
REMARK   13  A    between atoms: C_22  and  N_23
REMARK   14  A    between atoms: C_27  and  O_28
REMARK   15  A    between atoms: C_29  and  N_30
REMARK   16  A    between atoms: C_35  and  C_36
REMARK   17  A    between atoms: C_37  and  O_38
REMARK   18  A    between atoms: C_37  and  C_39
REMARK                            x       y       z     vdW  Elec       q    Type
REMARK                         _______ _______ _______ _____ _____    ______ ____
ROOT
ATOM      1  O   UNL     1       0.458   1.000  -0.102  0.00  0.00    -0.341 OA
ENDROOT
BRANCH   1   3
ATOM      2  C   UNL     1      -1.224   1.082  -1.903  0.00  0.00    +0.218 C 
ATOM      3  C   UNL     1      -0.097   0.272  -1.228  0.00  0.00    +0.283 C 
ATOM      4  O   UNL     1       0.904  -0.003  -2.199  0.00  0.00    -0.342 OA
ATOM      5  C   UNL     1       0.339   0.130  -3.477  0.00  0.00    +0.160 C 
ATOM      6  C   UNL     1      -0.233  -1.234  -3.877  0.00  0.00    +0.041 C 
ATOM      7  C   UNL     1      -0.732   1.263  -3.326  0.00  0.00    +0.177 C 
BRANCH   7   8
ATOM      8  O   UNL     1      -1.716   1.147  -4.332  0.00  0.00    -0.376 OA
ATOM      9  H   UNL     1      -2.467   1.747  -4.075  0.00  0.00    +0.211 HD
ENDBRANCH   7   8
BRANCH   7  10
ATOM     10  C   UNL     1      -0.017   2.609  -3.512  0.00  0.00    +0.263 C 
ATOM     11  O   UNL     1       0.309   3.318  -2.566  0.00  0.00    -0.298 OA
ENDBRANCH   7  10
BRANCH   2  12
ATOM     12  O   UNL     1      -2.360   0.236  -2.002  0.00  0.00    -0.338 OA
BRANCH  12  18
ATOM     13  C   UNL     1      -4.614   0.121  -1.216  0.00  0.00    +0.141 C 
ATOM     14  C   UNL     1      -5.459  -0.695  -0.143  0.00  0.00    +0.167 C 
ATOM     15  C   UNL     1      -4.743  -0.719   1.235  0.00  0.00    +0.176 C 
ATOM     16  C   UNL     1      -3.310  -1.267   1.070  0.00  0.00    +0.178 C 
ATOM     17  O   UNL     1      -2.794  -1.174  -0.254  0.00  0.00    -0.341 OA
ATOM     18  C   UNL     1      -3.121   0.067  -0.830  0.00  0.00    +0.271 C 
BRANCH  13  20
ATOM     19  C   UNL     1      -6.204  -0.355  -3.008  0.00  0.00    +0.101 C 
ATOM     20  N   UNL     1      -4.809  -0.447  -2.551  0.00  0.00    -0.310 NA
ATOM     21  H   UNL     1      -4.455  -1.448  -2.596  0.00  0.00    +0.122 HD
ENDBRANCH  13  20
BRANCH  14  22
ATOM     22  O   UNL     1      -6.782  -0.199  -0.015  0.00  0.00    -0.387 OA
ATOM     23  H   UNL     1      -6.719   0.779   0.230  0.00  0.00    +0.210 HD
ENDBRANCH  14  22
BRANCH  15  24
ATOM     24  O   UNL     1      -5.447  -1.547   2.159  0.00  0.00    -0.387 OA
ATOM     25  H   UNL     1      -6.382  -1.180   2.221  0.00  0.00    +0.210 HD
ENDBRANCH  15  24
BRANCH  16  26
ATOM     26  C   UNL     1      -2.357  -0.639   2.082  0.00  0.00    +0.190 C 
BRANCH  26  27
ATOM     27  O   UNL     1      -2.824  -0.888   3.389  0.00  0.00    -0.392 OA
ATOM     28  H   UNL     1      -3.319  -0.062   3.694  0.00  0.00    +0.210 HD
ENDBRANCH  26  27
ENDBRANCH  16  26
ENDBRANCH  12  18
ENDBRANCH   2  12
ENDBRANCH   1   3
BRANCH   1  29
ATOM     29  C   UNL     1       1.851   0.673   0.159  0.00  0.00    +0.177 C 
ATOM     30  C   UNL     1       2.745   1.853  -0.301  0.00  0.00    +0.176 C 
ATOM     31  C   UNL     1       4.211   1.425  -0.204  0.00  0.00    +0.170 C 
ATOM     32  C   UNL     1       4.581   1.055   1.280  0.00  0.00    +0.143 C 
ATOM     33  C   UNL     1       3.564   0.084   1.937  0.00  0.00    +0.164 C 
ATOM     34  C   UNL     1       2.075   0.421   1.653  0.00  0.00    +0.144 C 
BRANCH  32  35
ATOM     35  N   UNL     1       5.892   0.406   1.318  0.00  0.00    -0.349 N 
ATOM     36  C   UNL     1       6.652   0.202   2.518  0.00  0.00    +0.188 C 
ATOM     37  N   UNL     1       7.008  -1.155   2.856  0.00  0.00    -0.370 N 
ATOM     38  N   UNL     1       6.744   1.151   3.407  0.00  0.00    -0.269 NA
ATOM     39  H   UNL     1       6.219  -0.184   0.506  0.00  0.00    +0.163 HD
ATOM     40  H   UNL     1       7.844  -1.416   3.461  0.00  0.00    +0.159 HD
ATOM     41  H   UNL     1       7.938  -1.402   3.301  0.00  0.00    +0.159 HD
ATOM     42  H   UNL     1       6.397   2.120   3.168  0.00  0.00    +0.190 HD
ENDBRANCH  32  35
BRANCH  34  43
ATOM     43  N   UNL     1       1.181  -0.647   2.158  0.00  0.00    -0.349 N 
ATOM     44  C   UNL     1       1.327  -2.044   1.765  0.00  0.00    +0.188 C 
ATOM     45  N   UNL     1       0.855  -3.113   2.599  0.00  0.00    -0.370 N 
ATOM     46  N   UNL     1       1.907  -2.329   0.637  0.00  0.00    -0.269 NA
ATOM     47  H   UNL     1       0.650  -0.414   3.028  0.00  0.00    +0.163 HD
ATOM     48  H   UNL     1       0.528  -2.955   3.584  0.00  0.00    +0.159 HD
ATOM     49  H   UNL     1       1.299  -4.067   2.477  0.00  0.00    +0.159 HD
ATOM     50  H   UNL     1       1.964  -3.320   0.341  0.00  0.00    +0.190 HD
ENDBRANCH  34  43
BRANCH  30  51
ATOM     51  O   UNL     1       2.475   2.182  -1.635  0.00  0.00    -0.387 OA
ATOM     52  H   UNL     1       2.649   3.166  -1.713  0.00  0.00    +0.210 HD
ENDBRANCH  30  51
BRANCH  31  53
ATOM     53  O   UNL     1       5.001   2.486  -0.691  0.00  0.00    -0.387 OA
ATOM     54  H   UNL     1       5.960   2.297  -0.486  0.00  0.00    +0.210 HD
ENDBRANCH  31  53
BRANCH  33  55
ATOM     55  O   UNL     1       3.787   0.087   3.324  0.00  0.00    -0.388 OA
ATOM     56  H   UNL     1       3.736  -0.899   3.584  0.00  0.00    +0.210 HD
ENDBRANCH  33  55
ENDBRANCH   1  29
TORSDOF 16
