REMARK  Name = 
REMARK  8 active torsions:
REMARK  status: ('A' for Active; 'I' for Inactive)
REMARK    1  A    between atoms: C_1  and  N_2
REMARK    2  A    between atoms: N_2  and  N_3
REMARK    3  A    between atoms: N_7  and  C_8
REMARK    4  A    between atoms: C_9  and  O_10
REMARK    5  A    between atoms: C_12  and  C_13
REMARK    6  A    between atoms: C_13  and  O_14
REMARK    7  A    between atoms: C_15  and  O_16
REMARK    8  A    between atoms: C_17  and  O_18
REMARK                            x       y       z     vdW  Elec       q    Type
REMARK                         _______ _______ _______ _____ _____    ______ ____
ROOT
ATOM      1  C   UNL     1       0.199   0.823   0.350  0.00  0.00    +0.161 C 
ATOM      2  C   UNL     1      -0.988   1.183  -0.583  0.00  0.00    +0.270 C 
ATOM      3  O   UNL     1      -1.638   0.008  -1.028  0.00  0.00    -0.341 OA
ATOM      4  C   UNL     1      -2.292  -0.698   0.027  0.00  0.00    +0.178 C 
ATOM      5  C   UNL     1      -1.722  -0.442   1.452  0.00  0.00    +0.176 C 
ATOM      6  C   UNL     1      -0.193  -0.282   1.366  0.00  0.00    +0.171 C 
ENDROOT
BRANCH   1  11
ATOM      7  C   UNL     1       3.550  -1.158  -1.682  0.00  0.00    +0.166 C 
ATOM      8  N   UNL     1       3.796  -0.202  -0.606  0.00  0.00    -0.144 N 
ATOM      9  C   UNL     1       2.695   0.391   0.118  0.00  0.00    +0.324 C 
ATOM     10  O   UNL     1       2.899   0.915   1.247  0.00  0.00    -0.251 OA
ATOM     11  N   UNL     1       1.365   0.384  -0.429  0.00  0.00    -0.288 N 
ATOM     12  H   UNL     1       1.218   0.041  -1.405  0.00  0.00    +0.151 HD
BRANCH   8  13
ATOM     13  N   UNL     1       5.132   0.144  -0.329  0.00  0.00    +0.052 NA
ATOM     14  O   UNL     1       5.429   1.026   0.503  0.00  0.00    -0.126 OA
ENDBRANCH   8  13
ENDBRANCH   1  11
BRANCH   2  15
ATOM     15  O   UNL     1      -0.538   1.901  -1.702  0.00  0.00    -0.365 OA
ATOM     16  H   UNL     1      -0.256   2.796  -1.375  0.00  0.00    +0.213 HD
ENDBRANCH   2  15
BRANCH   5  17
ATOM     17  O   UNL     1      -2.049  -1.526   2.285  0.00  0.00    -0.387 OA
ATOM     18  H   UNL     1      -2.038  -1.189   3.219  0.00  0.00    +0.210 HD
ENDBRANCH   5  17
BRANCH   6  19
ATOM     19  O   UNL     1       0.329   0.042   2.630  0.00  0.00    -0.387 OA
ATOM     20  H   UNL     1       0.461  -0.812   3.119  0.00  0.00    +0.210 HD
ENDBRANCH   6  19
BRANCH   4  21
ATOM     21  C   UNL     1      -3.812  -0.472  -0.040  0.00  0.00    +0.190 C 
BRANCH  21  22
ATOM     22  O   UNL     1      -4.139   0.873   0.183  0.00  0.00    -0.392 OA
ATOM     23  H   UNL     1      -4.066   1.334  -0.694  0.00  0.00    +0.210 HD
ENDBRANCH  21  22
ENDBRANCH   4  21
TORSDOF 7
