REMARK  Name = 
REMARK  17 active torsions:
REMARK  status: ('A' for Active; 'I' for Inactive)
REMARK    1  A    between atoms: C_1  and  N_2
REMARK    2  A    between atoms: N_2  and  C_3
REMARK    3  A    between atoms: N_2  and  C_4
REMARK    4  A    between atoms: N_2  and  C_5
REMARK    5  A    between atoms: C_5  and  C_6
REMARK    6  A    between atoms: C_6  and  O_7
REMARK    7  A    between atoms: O_7  and  C_8
REMARK    8  A    between atoms: C_8  and  C_10
REMARK    9  A    between atoms: C_10  and  C_11
REMARK   10  A    between atoms: C_11  and  C_12
REMARK   11  A    between atoms: C_12  and  O_14
REMARK   12  A    between atoms: O_14  and  C_15
REMARK   13  A    between atoms: C_15  and  C_16
REMARK   14  A    between atoms: C_16  and  N_17
REMARK   15  A    between atoms: N_17  and  C_18
REMARK   16  A    between atoms: N_17  and  C_19
REMARK   17  A    between atoms: N_17  and  C_20
REMARK                            x       y       z     vdW  Elec       q    Type
REMARK                         _______ _______ _______ _____ _____    ______ ____
ROOT
ATOM      1  C   UNL     1       0.163  -0.040   0.622  0.00  0.00    +0.132 C 
ENDROOT
BRANCH   1   2
ATOM      2  C   UNL     1       1.619  -0.301   0.835  0.00  0.00    +0.308 C 
ATOM      3  O   UNL     1       2.020  -1.479   1.043  0.00  0.00    -0.251 OA
BRANCH   2   4
ATOM      4  O   UNL     1       2.514   0.774   0.856  0.00  0.00    -0.466 OA
BRANCH   4   5
ATOM      5  C   UNL     1       3.921   0.623   1.033  0.00  0.00    +0.214 C 
BRANCH   5   6
ATOM      6  C   UNL     1       4.570   0.122  -0.276  0.00  0.00    -0.035 C 
BRANCH   6   8
ATOM      7  C   UNL     1       6.749   1.205   0.084  0.00  0.00    -0.093 C 
ATOM      8  N   UNL     1       6.052  -0.068  -0.221  0.00  0.00    +0.377 N 
ATOM      9  C   UNL     1       6.426  -1.094   0.782  0.00  0.00    -0.093 C 
ATOM     10  C   UNL     1       6.502  -0.536  -1.555  0.00  0.00    -0.093 C 
ENDBRANCH   6   8
ENDBRANCH   5   6
ENDBRANCH   4   5
ENDBRANCH   2   4
ENDBRANCH   1   2
BRANCH   1  11
ATOM     11  C   UNL     1      -0.527   0.255   1.954  0.00  0.00    +0.132 C 
BRANCH  11  12
ATOM     12  C   UNL     1      -1.983   0.517   1.738  0.00  0.00    +0.308 C 
ATOM     13  O   UNL     1      -2.389   1.699   1.571  0.00  0.00    -0.251 OA
BRANCH  12  14
ATOM     14  O   UNL     1      -2.874  -0.561   1.683  0.00  0.00    -0.466 OA
BRANCH  14  15
ATOM     15  C   UNL     1      -4.260  -0.420   1.380  0.00  0.00    +0.214 C 
BRANCH  15  16
ATOM     16  C   UNL     1      -4.450  -0.207  -0.138  0.00  0.00    -0.035 C 
BRANCH  16  17
ATOM     17  N   UNL     1      -5.867  -0.043  -0.587  0.00  0.00    +0.377 N 
ATOM     18  C   UNL     1      -5.862   0.126  -2.061  0.00  0.00    -0.093 C 
ATOM     19  C   UNL     1      -6.486   1.162   0.017  0.00  0.00    -0.093 C 
ATOM     20  C   UNL     1      -6.680  -1.238  -0.258  0.00  0.00    -0.093 C 
ENDBRANCH  16  17
ENDBRANCH  15  16
ENDBRANCH  14  15
ENDBRANCH  12  14
ENDBRANCH  11  12
ENDBRANCH   1  11
TORSDOF 11
