REMARK  Name = 
REMARK  7 active torsions:
REMARK  status: ('A' for Active; 'I' for Inactive)
REMARK    1  A    between atoms: O_1  and  C_2
REMARK    2  A    between atoms: C_2  and  C_4
REMARK    3  A    between atoms: C_4  and  S_5
REMARK    4  A    between atoms: C_4  and  C_6
REMARK    5  A    between atoms: C_6  and  S_7
REMARK    6  A    between atoms: C_6  and  C_8
REMARK    7  A    between atoms: C_8  and  O_9
REMARK                            x       y       z     vdW  Elec       q    Type
REMARK                         _______ _______ _______ _____ _____    ______ ____
ROOT
ATOM      1  C   UNL     1       0.699   0.334  -0.043  0.00  0.00    +0.175 C 
ENDROOT
BRANCH   1   2
ATOM      2  C   UNL     1       1.784  -0.695   0.124  0.00  0.00    +0.319 C 
ATOM      3  O   UNL     1       2.203  -1.006   1.271  0.00  0.00    -0.250 OA
BRANCH   2   4
ATOM      4  O   UNL     1       2.298  -1.338  -0.998  0.00  0.00    -0.480 OA
ATOM      5  H   UNL     1       3.018  -2.045  -0.906  0.00  0.00    +0.295 HD
ENDBRANCH   2   4
ENDBRANCH   1   2
BRANCH   1   6
ATOM      6  S   UNL     1       1.007   1.771   1.049  0.00  0.00    -0.162 S 
ATOM      7  H   UNL     1       2.215   2.102   0.406  0.00  0.00    +0.102 HD
ENDBRANCH   1   6
BRANCH   1   8
ATOM      8  C   UNL     1      -0.697  -0.289   0.181  0.00  0.00    +0.175 C 
BRANCH   8   9
ATOM      9  S   UNL     1      -0.955  -0.820   1.915  0.00  0.00    -0.162 S 
ATOM     10  H   UNL     1      -2.180  -1.451   1.623  0.00  0.00    +0.102 HD
ENDBRANCH   8   9
BRANCH   8  11
ATOM     11  C   UNL     1      -1.786   0.655  -0.247  0.00  0.00    +0.319 C 
ATOM     12  O   UNL     1      -2.172   1.580   0.517  0.00  0.00    -0.250 OA
BRANCH  11  13
ATOM     13  O   UNL     1      -2.342   0.531  -1.517  0.00  0.00    -0.480 OA
ATOM     14  H   UNL     1      -3.066   1.167  -1.831  0.00  0.00    +0.295 HD
ENDBRANCH  11  13
ENDBRANCH   8  11
ENDBRANCH   1   8
TORSDOF 7
