REMARK  Name = 
REMARK  5 active torsions:
REMARK  status: ('A' for Active; 'I' for Inactive)
REMARK    1  A    between atoms: O_1  and  C_2
REMARK    2  A    between atoms: C_2  and  C_4
REMARK    3  A    between atoms: C_4  and  C_5
REMARK    4  A    between atoms: C_5  and  C_6
REMARK    5  A    between atoms: C_6  and  O_7
REMARK                            x       y       z     vdW  Elec       q    Type
REMARK                         _______ _______ _______ _____ _____    ______ ____
ROOT
ATOM      1  C   UNL     1       0.714  -0.553  -0.721  0.00  0.00    +0.131 C 
ENDROOT
BRANCH   1   2
ATOM      2  C   UNL     1       1.518  -0.259   0.508  0.00  0.00    +0.305 C 
ATOM      3  O   UNL     1       1.968  -1.205   1.210  0.00  0.00    -0.251 OA
BRANCH   2   4
ATOM      4  O   UNL     1       1.736   1.059   0.896  0.00  0.00    -0.481 OA
ATOM      5  H   UNL     1       2.264   1.274   1.733  0.00  0.00    +0.295 HD
ENDBRANCH   2   4
ENDBRANCH   1   2
BRANCH   1   6
ATOM      6  C   UNL     1      -0.753  -0.837  -0.380  0.00  0.00    +0.131 C 
BRANCH   6   7
ATOM      7  C   UNL     1      -1.445   0.387   0.138  0.00  0.00    +0.305 C 
ATOM      8  O   UNL     1      -1.594   0.552   1.378  0.00  0.00    -0.251 OA
BRANCH   7   9
ATOM      9  O   UNL     1      -1.891   1.359  -0.752  0.00  0.00    -0.481 OA
ATOM     10  H   UNL     1      -2.347   2.199  -0.418  0.00  0.00    +0.295 HD
ENDBRANCH   7   9
ENDBRANCH   6   7
ENDBRANCH   1   6
TORSDOF 5
