REMARK  Name = 
REMARK  52 active torsions:
REMARK  status: ('A' for Active; 'I' for Inactive)
REMARK    1  A    between atoms: O_1  and  AL_2
REMARK    2  A    between atoms: AL_2  and  O_3
REMARK    3  A    between atoms: AL_2  and  O_4
REMARK    4  A    between atoms: O_4  and  S_5
REMARK    5  A    between atoms: S_5  and  O_8
REMARK    6  A    between atoms: O_8  and  C_9
REMARK    7  A    between atoms: C_9  and  C_10
REMARK    8  A    between atoms: C_12  and  O_13
REMARK    9  A    between atoms: O_13  and  C_14
REMARK   10  A    between atoms: C_14  and  C_15
REMARK   11  A    between atoms: C_15  and  O_16
REMARK   12  A    between atoms: O_16  and  S_17
REMARK   13  A    between atoms: S_17  and  O_20
REMARK   14  A    between atoms: O_20  and  AL_21
REMARK   15  A    between atoms: AL_21  and  O_22
REMARK   16  A    between atoms: AL_21  and  O_23
REMARK   17  A    between atoms: C_25  and  O_26
REMARK   18  A    between atoms: O_26  and  S_27
REMARK   19  A    between atoms: S_27  and  O_30
REMARK   20  A    between atoms: O_30  and  AL_31
REMARK   21  A    between atoms: AL_31  and  O_32
REMARK   22  A    between atoms: AL_31  and  O_33
REMARK   23  A    between atoms: C_34  and  O_35
REMARK   24  A    between atoms: O_35  and  S_36
REMARK   25  A    between atoms: S_36  and  O_39
REMARK   26  A    between atoms: O_39  and  AL_40
REMARK   27  A    between atoms: AL_40  and  O_41
REMARK   28  A    between atoms: AL_40  and  O_42
REMARK   29  A    between atoms: C_43  and  O_44
REMARK   30  A    between atoms: O_44  and  S_45
REMARK   31  A    between atoms: S_45  and  O_48
REMARK   32  A    between atoms: O_48  and  AL_49
REMARK   33  A    between atoms: AL_49  and  O_50
REMARK   34  A    between atoms: AL_49  and  O_51
REMARK   35  A    between atoms: C_52  and  O_53
REMARK   36  A    between atoms: O_53  and  S_54
REMARK   37  A    between atoms: S_54  and  O_57
REMARK   38  A    between atoms: O_57  and  AL_58
REMARK   39  A    between atoms: AL_58  and  O_59
REMARK   40  A    between atoms: AL_58  and  O_60
REMARK   41  A    between atoms: C_61  and  O_62
REMARK   42  A    between atoms: O_62  and  S_63
REMARK   43  A    between atoms: S_63  and  O_66
REMARK   44  A    between atoms: O_66  and  AL_67
REMARK   45  A    between atoms: AL_67  and  O_68
REMARK   46  A    between atoms: AL_67  and  O_69
REMARK   47  A    between atoms: C_70  and  O_71
REMARK   48  A    between atoms: O_71  and  S_72
REMARK   49  A    between atoms: S_72  and  O_75
REMARK   50  A    between atoms: O_75  and  AL_76
REMARK   51  A    between atoms: AL_76  and  O_77
REMARK   52  A    between atoms: AL_76  and  O_78
REMARK                            x       y       z     vdW  Elec       q    Type
REMARK                         _______ _______ _______ _____ _____    ______ ____
ROOT
ATOM      1  C   UNL     1      -2.349  -6.670   0.924  0.00  0.00    +0.183 C 
ATOM      2  O   UNL     1      -2.678  -6.398   2.301  0.00  0.00    -0.340 OA
ATOM      3  C   UNL     1      -3.905  -5.654   2.444  0.00  0.00    +0.288 C 
ATOM      4  C   UNL     1      -3.814  -4.306   1.718  0.00  0.00    +0.241 C 
ATOM      5  C   UNL     1      -3.419  -4.531   0.260  0.00  0.00    +0.221 C 
ATOM      6  C   UNL     1      -2.169  -5.393   0.145  0.00  0.00    +0.217 C 
ENDROOT
BRANCH   3   7
ATOM      7  O   UNL     1      -4.130  -5.411   3.825  0.00  0.00    -0.312 OA
BRANCH   7   8
ATOM      8  C   UNL     1      -3.433  -4.299   4.367  0.00  0.00    +0.233 C 
ATOM      9  O   UNL     1      -3.796  -3.063   3.698  0.00  0.00    -0.310 OA
ATOM     10  C   UNL     1      -2.693  -2.582   2.919  0.00  0.00    +0.319 C 
ATOM     11  C   UNL     1      -1.663  -3.714   2.875  0.00  0.00    +0.246 C 
ATOM     12  C   UNL     1      -1.919  -4.441   4.190  0.00  0.00    +0.249 C 
BRANCH   8  13
ATOM     13  C   UNL     1      -3.786  -4.223   5.844  0.00  0.00    +0.263 C 
BRANCH  13  14
ATOM     14  O   UNL     1      -2.963  -5.125   6.570  0.00  0.00    -0.212 OA
BRANCH  14  15
ATOM     15  S   UNL     1      -3.225  -6.717   6.004  0.00  0.00    +0.186 S 
ATOM     16  O   UNL     1      -4.695  -7.094   6.204  0.00  0.00    -0.120 OA
ATOM     17  O   UNL     1      -2.877  -6.794   4.516  0.00  0.00    -0.120 OA
BRANCH  15  18
ATOM     18  O   UNL     1      -2.234  -7.803   6.878  0.00  0.00    -0.288 OA
BRANCH  18  19
ATOM     19 AL   UNL     1      -2.521  -9.544   6.259  0.00  0.00    +0.937 Al
BRANCH  19  20
ATOM     20  O   UNL     1      -3.747  -9.858   4.883  0.00  0.00    -0.471 OA
ATOM     21  H   UNL     1      -4.156  -8.991   4.597  0.00  0.00    +0.169 HD
ENDBRANCH  19  20
BRANCH  19  22
ATOM     22  O   UNL     1      -1.581 -10.972   7.017  0.00  0.00    -0.471 OA
ATOM     23  H   UNL     1      -1.854 -11.825   6.572  0.00  0.00    +0.169 HD
ENDBRANCH  19  22
ENDBRANCH  18  19
ENDBRANCH  15  18
ENDBRANCH  14  15
ENDBRANCH  13  14
ENDBRANCH   8  13
BRANCH  10  24
ATOM     24  O   UNL     1      -3.125  -2.260   1.605  0.00  0.00    -0.183 OA
BRANCH  24  25
ATOM     25  S   UNL     1      -4.766  -1.781   1.571  0.00  0.00    +0.188 S 
ATOM     26  O   UNL     1      -5.643  -2.928   2.079  0.00  0.00    -0.120 OA
ATOM     27  O   UNL     1      -4.958  -0.556   2.468  0.00  0.00    -0.120 OA
BRANCH  25  28
ATOM     28  O   UNL     1      -5.212  -1.389  -0.032  0.00  0.00    -0.288 OA
BRANCH  28  29
ATOM     29 AL   UNL     1      -7.007  -0.865  -0.069  0.00  0.00    +0.937 Al
BRANCH  29  30
ATOM     30  O   UNL     1      -8.005  -0.836   1.511  0.00  0.00    -0.471 OA
ATOM     31  H   UNL     1      -7.429  -1.128   2.275  0.00  0.00    +0.169 HD
ENDBRANCH  29  30
BRANCH  29  32
ATOM     32  O   UNL     1      -7.803  -0.369  -1.687  0.00  0.00    -0.471 OA
ATOM     33  H   UNL     1      -8.758  -0.120  -1.526  0.00  0.00    +0.169 HD
ENDBRANCH  29  32
ENDBRANCH  28  29
ENDBRANCH  25  28
ENDBRANCH  24  25
ENDBRANCH  10  24
BRANCH  11  34
ATOM     34  O   UNL     1      -0.326  -3.260   2.729  0.00  0.00    -0.206 OA
BRANCH  34  35
ATOM     35  S   UNL     1       0.064  -2.211   4.023  0.00  0.00    +0.186 S 
ATOM     36  O   UNL     1      -0.887  -1.012   4.011  0.00  0.00    -0.120 OA
ATOM     37  O   UNL     1      -0.078  -2.961   5.349  0.00  0.00    -0.120 OA
BRANCH  35  38
ATOM     38  O   UNL     1       1.674  -1.663   3.847  0.00  0.00    -0.288 OA
BRANCH  38  39
ATOM     39 AL   UNL     1       2.100  -0.516   5.261  0.00  0.00    +0.937 Al
BRANCH  39  40
ATOM     40  O   UNL     1       0.826  -0.141   6.577  0.00  0.00    -0.471 OA
ATOM     41  H   UNL     1      -0.020  -0.633   6.372  0.00  0.00    +0.169 HD
ENDBRANCH  39  40
BRANCH  39  42
ATOM     42  O   UNL     1       3.800   0.257   5.359  0.00  0.00    -0.471 OA
ATOM     43  H   UNL     1       3.856   0.837   6.171  0.00  0.00    +0.169 HD
ENDBRANCH  39  42
ENDBRANCH  38  39
ENDBRANCH  35  38
ENDBRANCH  34  35
ENDBRANCH  11  34
BRANCH  12  44
ATOM     44  O   UNL     1      -1.540  -5.806   4.102  0.00  0.00    -0.206 OA
BRANCH  44  45
ATOM     45  S   UNL     1      -1.350  -6.364   2.497  0.00  0.00    +0.186 S 
ATOM     46  O   UNL     1      -2.633  -7.067   2.046  0.00  0.00    -0.120 OA
ATOM     47  O   UNL     1      -1.068  -5.176   1.574  0.00  0.00    -0.120 OA
BRANCH  45  48
ATOM     48  O   UNL     1      -0.042  -7.463   2.426  0.00  0.00    -0.288 OA
BRANCH  48  49
ATOM     49 AL   UNL     1       0.165  -8.073   0.670  0.00  0.00    +0.937 Al
BRANCH  49  50
ATOM     50  O   UNL     1      -0.982  -7.461  -0.674  0.00  0.00    -0.471 OA
ATOM     51  H   UNL     1      -1.641  -6.818  -0.283  0.00  0.00    +0.169 HD
ENDBRANCH  49  50
BRANCH  49  52
ATOM     52  O   UNL     1       1.519  -9.296   0.259  0.00  0.00    -0.471 OA
ATOM     53  H   UNL     1       1.487  -9.513  -0.717  0.00  0.00    +0.169 HD
ENDBRANCH  49  52
ENDBRANCH  48  49
ENDBRANCH  45  48
ENDBRANCH  44  45
ENDBRANCH  12  44
ENDBRANCH   7   8
ENDBRANCH   3   7
BRANCH   1  54
ATOM     54  C   UNL     1      -1.089  -7.521   0.923  0.00  0.00    +0.230 C 
BRANCH  54  55
ATOM     55  O   UNL     1      -0.040  -6.814   1.569  0.00  0.00    -0.215 OA
BRANCH  55  56
ATOM     56  S   UNL     1       0.259  -5.351   0.735  0.00  0.00    +0.186 S 
ATOM     57  O   UNL     1      -1.010  -4.495   0.736  0.00  0.00    -0.120 OA
ATOM     58  O   UNL     1       0.665  -5.660  -0.708  0.00  0.00    -0.120 OA
BRANCH  56  59
ATOM     59  O   UNL     1       1.521  -4.500   1.513  0.00  0.00    -0.288 OA
BRANCH  59  60
ATOM     60 AL   UNL     1       1.848  -2.900   0.601  0.00  0.00    +0.937 Al
BRANCH  60  61
ATOM     61  O   UNL     1       0.844  -2.466  -0.915  0.00  0.00    -0.471 OA
ATOM     62  H   UNL     1       1.147  -1.583  -1.275  0.00  0.00    +0.169 HD
ENDBRANCH  60  61
BRANCH  60  63
ATOM     63  O   UNL     1       3.180  -1.735   1.206  0.00  0.00    -0.471 OA
ATOM     64  H   UNL     1       3.220  -0.935   0.607  0.00  0.00    +0.169 HD
ENDBRANCH  60  63
ENDBRANCH  59  60
ENDBRANCH  56  59
ENDBRANCH  55  56
ENDBRANCH  54  55
ENDBRANCH   1  54
BRANCH   5  65
ATOM     65  O   UNL     1      -3.169  -3.273  -0.348  0.00  0.00    -0.209 OA
BRANCH  65  66
ATOM     66  S   UNL     1      -1.676  -2.645   0.199  0.00  0.00    +0.186 S 
ATOM     67  O   UNL     1      -1.725  -2.462   1.718  0.00  0.00    -0.120 OA
ATOM     68  O   UNL     1      -0.550  -3.618  -0.161  0.00  0.00    -0.120 OA
BRANCH  66  69
ATOM     69  O   UNL     1      -1.384  -1.134  -0.547  0.00  0.00    -0.288 OA
BRANCH  69  70
ATOM     70 AL   UNL     1       0.249  -0.448   0.051  0.00  0.00    +0.937 Al
BRANCH  70  71
ATOM     71  O   UNL     1       0.858   1.203  -0.583  0.00  0.00    -0.471 OA
ATOM     72  H   UNL     1       1.740   1.416  -0.162  0.00  0.00    +0.169 HD
ENDBRANCH  70  71
BRANCH  70  73
ATOM     73  O   UNL     1       1.273  -1.411   1.284  0.00  0.00    -0.471 OA
ATOM     74  H   UNL     1       0.803  -2.264   1.514  0.00  0.00    +0.169 HD
ENDBRANCH  70  73
ENDBRANCH  69  70
ENDBRANCH  66  69
ENDBRANCH  65  66
ENDBRANCH   5  65
BRANCH   6  75
ATOM     75  O   UNL     1      -1.946  -5.708  -1.221  0.00  0.00    -0.209 OA
BRANCH  75  76
ATOM     76  S   UNL     1      -3.290  -6.567  -1.836  0.00  0.00    +0.186 S 
ATOM     77  O   UNL     1      -3.478  -7.860  -1.038  0.00  0.00    -0.120 OA
ATOM     78  O   UNL     1      -4.548  -5.703  -1.710  0.00  0.00    -0.120 OA
BRANCH  76  79
ATOM     79  O   UNL     1      -3.021  -6.946  -3.481  0.00  0.00    -0.288 OA
BRANCH  79  80
ATOM     80 AL   UNL     1      -4.492  -7.886  -4.153  0.00  0.00    +0.937 Al
BRANCH  80  81
ATOM     81  O   UNL     1      -5.948  -8.262  -3.041  0.00  0.00    -0.471 OA
ATOM     82  H   UNL     1      -5.775  -7.891  -2.129  0.00  0.00    +0.169 HD
ENDBRANCH  80  81
BRANCH  80  83
ATOM     83  O   UNL     1      -4.507  -8.449  -5.936  0.00  0.00    -0.471 OA
ATOM     84  H   UNL     1      -5.361  -8.932  -6.126  0.00  0.00    +0.169 HD
ENDBRANCH  80  83
ENDBRANCH  79  80
ENDBRANCH  76  79
ENDBRANCH  75  76
ENDBRANCH   6  75
BRANCH   4  85
ATOM     85  O   UNL     1      -5.076  -3.657   1.770  0.00  0.00    -0.206 OA
BRANCH  85  86
ATOM     86  S   UNL     1      -6.032  -4.202   0.461  0.00  0.00    +0.186 S 
ATOM     87  O   UNL     1      -5.218  -4.122  -0.833  0.00  0.00    -0.120 OA
ATOM     88  O   UNL     1      -6.457  -5.651   0.708  0.00  0.00    -0.120 OA
BRANCH  86  89
ATOM     89  O   UNL     1      -7.422  -3.216   0.322  0.00  0.00    -0.288 OA
BRANCH  89  90
ATOM     90 AL   UNL     1      -8.468  -3.811  -1.110  0.00  0.00    +0.937 Al
BRANCH  90  91
ATOM     91  O   UNL     1      -7.914  -5.282  -2.124  0.00  0.00    -0.471 OA
ATOM     92  H   UNL     1      -7.046  -5.625  -1.766  0.00  0.00    +0.169 HD
ENDBRANCH  90  91
BRANCH  90  93
ATOM     93  O   UNL     1     -10.067  -2.937  -1.527  0.00  0.00    -0.471 OA
ATOM     94  H   UNL     1     -10.495  -3.382  -2.313  0.00  0.00    +0.169 HD
ENDBRANCH  90  93
ENDBRANCH  89  90
ENDBRANCH  86  89
ENDBRANCH  85  86
ENDBRANCH   4  85
TORSDOF 52
