REMARK  Name = 
REMARK  10 active torsions:
REMARK  status: ('A' for Active; 'I' for Inactive)
REMARK    1  A    between atoms: C_1  and  C_2
REMARK    2  A    between atoms: C_2  and  C_3
REMARK    3  A    between atoms: N_5  and  C_6
REMARK    4  A    between atoms: N_5  and  C_12
REMARK    5  A    between atoms: C_12  and  C_13
REMARK    6  A    between atoms: C_13  and  O_14
REMARK    7  A    between atoms: O_14  and  C_15
REMARK    8  A    between atoms: N_18  and  C_19
REMARK    9  A    between atoms: C_19  and  C_20
REMARK   10  A    between atoms: C_20  and  C_21
REMARK                            x       y       z     vdW  Elec       q    Type
REMARK                         _______ _______ _______ _____ _____    ______ ____
ROOT
ATOM      1  C   UNL     1      -0.709  -0.530  -0.394  0.00  0.00    +0.068 C 
ATOM      2  C   UNL     1       0.177  -0.762   0.868  0.00  0.00    +0.044 C 
ATOM      3  C   UNL     1       1.355  -1.712   0.621  0.00  0.00    +0.086 C 
ATOM      4  N   UNL     1       2.207  -1.190  -0.460  0.00  0.00    -0.302 NA
ATOM      5  C   UNL     1       1.441  -1.125  -1.719  0.00  0.00    +0.086 C 
ATOM      6  C   UNL     1       0.244  -0.172  -1.581  0.00  0.00    +0.044 C 
ENDROOT
BRANCH   1   9
ATOM      7  C   UNL     1      -2.115   1.506  -1.149  0.00  0.00    +0.220 C 
ATOM      8  O   UNL     1      -2.367   1.080  -2.309  0.00  0.00    -0.275 OA
ATOM      9  N   UNL     1      -1.659   0.593  -0.123  0.00  0.00    -0.263 N 
BRANCH   9  10
ATOM     10  C   UNL     1      -2.384   0.638   1.121  0.00  0.00    +0.037 A 
ATOM     11  C   UNL     1      -3.643   0.027   1.224  0.00  0.00    +0.023 A 
ATOM     12  C   UNL     1      -4.358   0.083   2.423  0.00  0.00    +0.002 A 
ATOM     13  C   UNL     1      -3.823   0.759   3.524  0.00  0.00    +0.000 A 
ATOM     14  C   UNL     1      -2.578   1.387   3.422  0.00  0.00    +0.002 A 
ATOM     15  C   UNL     1      -1.866   1.337   2.221  0.00  0.00    +0.023 A 
ENDBRANCH   9  10
BRANCH   7  17
ATOM     16  C   UNL     1      -2.177   3.880  -1.983  0.00  0.00    +0.013 C 
ATOM     17  C   UNL     1      -2.424   2.938  -0.806  0.00  0.00    +0.093 C 
ENDBRANCH   7  17
ENDBRANCH   1   9
BRANCH   1  18
ATOM     18  C   UNL     1      -1.522  -1.818  -0.703  0.00  0.00    +0.185 C 
BRANCH  18  19
ATOM     19  O   UNL     1      -2.427  -1.586  -1.761  0.00  0.00    -0.381 OA
ATOM     20  C   UNL     1      -3.267  -2.707  -1.922  0.00  0.00    +0.194 C 
ENDBRANCH  18  19
ENDBRANCH   1  18
BRANCH   4  21
ATOM     21  C   UNL     1       3.426  -2.015  -0.620  0.00  0.00    +0.089 C 
BRANCH  21  22
ATOM     22  C   UNL     1       4.601  -1.157  -1.101  0.00  0.00    +0.058 C 
BRANCH  22  23
ATOM     23  C   UNL     1       4.883  -0.043  -0.138  0.00  0.00    -0.009 A 
ATOM     24  C   UNL     1       5.599  -0.157   1.049  0.00  0.00    +0.011 A 
ATOM     25  C   UNL     1       5.618   1.029   1.793  0.00  0.00    +0.008 A 
ATOM     26  C   UNL     1       4.908   2.071   1.206  0.00  0.00    +0.045 A 
ATOM     27  S   UNL     1       4.252   1.516  -0.241  0.00  0.00    -0.102 S 
ENDBRANCH  22  23
ENDBRANCH  21  22
ENDBRANCH   4  21
TORSDOF 8
