REMARK  Name = 
REMARK  5 active torsions:
REMARK  status: ('A' for Active; 'I' for Inactive)
REMARK    1  A    between atoms: N_1  and  C_2
REMARK    2  A    between atoms: C_5  and  S_8
REMARK    3  A    between atoms: S_8  and  N_11
REMARK    4  A    between atoms: N_11  and  C_12
REMARK    5  A    between atoms: N_16  and  C_17
REMARK                            x       y       z     vdW  Elec       q    Type
REMARK                         _______ _______ _______ _____ _____    ______ ____
ROOT
ATOM      1  N   UNL     1      -0.532  -0.699   1.425  0.00  0.00    -0.199 N 
ATOM      2  H   UNL     1      -1.127  -0.132   2.068  0.00  0.00    +0.175 HD
ENDROOT
BRANCH   1   3
ATOM      3  C   UNL     1      -1.009  -1.038   0.115  0.00  0.00    +0.141 A 
ATOM      4  C   UNL     1      -0.511  -2.041  -0.692  0.00  0.00    +0.066 A 
ATOM      5  C   UNL     1      -1.370  -2.062  -1.774  0.00  0.00    +0.137 A 
ATOM      6  N   UNL     1      -2.325  -1.123  -1.618  0.00  0.00    -0.173 NA
ATOM      7  N   UNL     1      -2.099  -0.498  -0.472  0.00  0.00    -0.217 N 
BRANCH   7   8
ATOM      8  C   UNL     1      -2.905   0.594  -0.003  0.00  0.00    +0.067 A 
ATOM      9  C   UNL     1      -2.310   1.751   0.531  0.00  0.00    +0.028 A 
ATOM     10  C   UNL     1      -3.105   2.819   0.960  0.00  0.00    +0.002 A 
ATOM     11  C   UNL     1      -4.496   2.746   0.846  0.00  0.00    +0.000 A 
ATOM     12  C   UNL     1      -5.094   1.609   0.296  0.00  0.00    +0.002 A 
ATOM     13  C   UNL     1      -4.302   0.540  -0.134  0.00  0.00    +0.028 A 
ENDBRANCH   7   8
ENDBRANCH   1   3
BRANCH   1  14
ATOM     14  S   UNL     1       1.021  -1.208   1.999  0.00  0.00    +0.073 S 
ATOM     15  O   UNL     1       1.000  -2.695   2.218  0.00  0.00    -0.150 OA
ATOM     16  O   UNL     1       1.321  -0.523   3.302  0.00  0.00    -0.150 OA
BRANCH  14  20
ATOM     17  C   UNL     1       4.215  -0.058  -1.060  0.00  0.00    +0.025 A 
ATOM     18  C   UNL     1       3.171   0.828  -0.758  0.00  0.00    +0.024 A 
ATOM     19  C   UNL     1       2.199   0.474   0.182  0.00  0.00    +0.030 A 
ATOM     20  C   UNL     1       2.259  -0.768   0.827  0.00  0.00    +0.109 A 
ATOM     21  C   UNL     1       3.305  -1.653   0.529  0.00  0.00    +0.030 A 
ATOM     22  C   UNL     1       4.278  -1.300  -0.411  0.00  0.00    +0.024 A 
BRANCH  17  23
ATOM     23  N   UNL     1       5.209   0.302  -2.022  0.00  0.00    -0.358 N 
ATOM     24  H   UNL     1       5.171   1.225  -2.511  0.00  0.00    +0.142 HD
ATOM     25  H   UNL     1       5.991  -0.350  -2.254  0.00  0.00    +0.142 HD
ENDBRANCH  17  23
ENDBRANCH  14  20
ENDBRANCH   1  14
TORSDOF 5
