REMARK  Name = 
REMARK  5 active torsions:
REMARK  status: ('A' for Active; 'I' for Inactive)
REMARK    1  A    between atoms: C_1  and  C_2
REMARK    2  A    between atoms: C_4  and  C_5
REMARK    3  A    between atoms: N_8  and  S_9
REMARK    4  A    between atoms: S_9  and  C_12
REMARK    5  A    between atoms: C_15  and  N_16
REMARK                            x       y       z     vdW  Elec       q    Type
REMARK                         _______ _______ _______ _____ _____    ______ ____
ROOT
ATOM      1  S   UNL     1       1.108   1.887  -1.823  0.00  0.00    +0.075 S 
ATOM      2  O   UNL     1       2.038   2.131  -2.977  0.00  0.00    -0.150 OA
ATOM      3  O   UNL     1       0.624   3.212  -1.305  0.00  0.00    -0.150 OA
ENDROOT
BRANCH   1  11
ATOM      4  C   UNL     1      -1.891   0.491   2.221  0.00  0.00    +0.066 C 
ATOM      5  C   UNL     1      -2.035   0.198   0.762  0.00  0.00    +0.044 A 
ATOM      6  C   UNL     1      -3.106  -0.568   0.292  0.00  0.00    +0.046 A 
ATOM      7  C   UNL     1      -3.203  -0.810  -1.081  0.00  0.00    +0.044 A 
ATOM      8  C   UNL     1      -4.325  -1.634  -1.627  0.00  0.00    +0.066 C 
ATOM      9  N   UNL     1      -2.261  -0.305  -1.922  0.00  0.00    -0.219 NA
ATOM     10  C   UNL     1      -1.226   0.442  -1.453  0.00  0.00    +0.235 A 
ATOM     11  N   UNL     1      -0.249   0.953  -2.363  0.00  0.00    -0.184 N 
ATOM     12  N   UNL     1      -1.125   0.690  -0.119  0.00  0.00    -0.219 NA
ATOM     13  H   UNL     1      -0.343   0.753  -3.384  0.00  0.00    +0.177 HD
ENDBRANCH   1  11
BRANCH   1  14
ATOM     14  C   UNL     1       1.972   1.004  -0.568  0.00  0.00    +0.109 A 
ATOM     15  C   UNL     1       2.631  -0.191  -0.889  0.00  0.00    +0.030 A 
ATOM     16  C   UNL     1       3.294  -0.917   0.105  0.00  0.00    +0.024 A 
ATOM     17  C   UNL     1       3.299  -0.456   1.430  0.00  0.00    +0.025 A 
ATOM     18  C   UNL     1       2.638   0.735   1.751  0.00  0.00    +0.024 A 
ATOM     19  C   UNL     1       1.977   1.463   0.757  0.00  0.00    +0.030 A 
BRANCH  17  20
ATOM     20  N   UNL     1       3.969  -1.187   2.460  0.00  0.00    -0.358 N 
ATOM     21  H   UNL     1       4.471  -2.080   2.256  0.00  0.00    +0.142 HD
ATOM     22  H   UNL     1       4.471  -2.080   2.256  0.00  0.00    +0.142 HD
ENDBRANCH  17  20
ENDBRANCH   1  14
TORSDOF 3
