REMARK  Name = 
REMARK  5 active torsions:
REMARK  status: ('A' for Active; 'I' for Inactive)
REMARK    1  A    between atoms: C_1  and  C_2
REMARK    2  A    between atoms: C_2  and  N_3
REMARK    3  A    between atoms: N_7  and  S_8
REMARK    4  A    between atoms: S_8  and  C_11
REMARK    5  A    between atoms: C_14  and  N_15
REMARK                            x       y       z     vdW  Elec       q    Type
REMARK                         _______ _______ _______ _____ _____    ______ ____
ROOT
ATOM      1  S   UNL     1      -1.812  -0.512   2.529  0.00  0.00    +0.073 S 
ATOM      2  O   UNL     1      -2.880  -0.044   3.477  0.00  0.00    -0.150 OA
ATOM      3  O   UNL     1      -1.456  -1.935   2.858  0.00  0.00    -0.150 OA
ENDROOT
BRANCH   1   8
ATOM      4  N   UNL     1       3.081   0.265   0.381  0.00  0.00    -0.299 N 
ATOM      5  C   UNL     1       2.113  -0.684   0.210  0.00  0.00    +0.094 A 
ATOM      6  C   UNL     1       0.945  -0.653   0.969  0.00  0.00    +0.063 A 
ATOM      7  C   UNL     1       0.774   0.377   1.902  0.00  0.00    +0.145 A 
ATOM      8  N   UNL     1      -0.403   0.483   2.718  0.00  0.00    -0.199 N 
ATOM      9  N   UNL     1       1.753   1.309   2.038  0.00  0.00    -0.177 NA
ATOM     10  C   UNL     1       2.889   1.269   1.294  0.00  0.00    +0.350 A 
ATOM     11  O   UNL     1       3.757   2.169   1.456  0.00  0.00    -0.244 OA
ATOM     12  H   UNL     1      -0.446   1.244   3.432  0.00  0.00    +0.175 HD
BRANCH   4  14
ATOM     13  C   UNL     1       4.090   1.044  -1.724  0.00  0.00    +0.027 C 
ATOM     14  C   UNL     1       4.289   0.218  -0.457  0.00  0.00    +0.123 C 
ENDBRANCH   4  14
ENDBRANCH   1   8
BRANCH   1  15
ATOM     15  C   UNL     1      -2.423  -0.388   0.882  0.00  0.00    +0.109 A 
ATOM     16  C   UNL     1      -2.365   0.837   0.204  0.00  0.00    +0.030 A 
ATOM     17  C   UNL     1      -2.837   0.939  -1.107  0.00  0.00    +0.024 A 
ATOM     18  C   UNL     1      -3.377  -0.183  -1.752  0.00  0.00    +0.025 A 
ATOM     19  C   UNL     1      -3.441  -1.407  -1.071  0.00  0.00    +0.024 A 
ATOM     20  C   UNL     1      -2.967  -1.509   0.240  0.00  0.00    +0.030 A 
BRANCH  18  21
ATOM     21  N   UNL     1      -3.860  -0.079  -3.094  0.00  0.00    -0.358 N 
ATOM     22  H   UNL     1      -3.817   0.829  -3.609  0.00  0.00    +0.142 HD
ATOM     23  H   UNL     1      -4.264  -0.909  -3.582  0.00  0.00    +0.142 HD
ENDBRANCH  18  21
ENDBRANCH   1  15
TORSDOF 4
