REMARK  Name = 
REMARK  4 active torsions:
REMARK  status: ('A' for Active; 'I' for Inactive)
REMARK    1  A    between atoms: C_1  and  C_2
REMARK    2  A    between atoms: N_5  and  S_6
REMARK    3  A    between atoms: S_6  and  C_9
REMARK    4  A    between atoms: C_12  and  N_13
REMARK                            x       y       z     vdW  Elec       q    Type
REMARK                         _______ _______ _______ _____ _____    ______ ____
ROOT
ATOM      1  S   UNL     1       0.292   0.818  -2.342  0.00  0.00    +0.074 S 
ATOM      2  O   UNL     1       0.938   0.378  -3.626  0.00  0.00    -0.150 OA
ATOM      3  O   UNL     1      -0.117   2.259  -2.467  0.00  0.00    -0.150 OA
ENDROOT
BRANCH   1   8
ATOM      4  C   UNL     1      -4.603  -0.564   1.464  0.00  0.00    +0.089 C 
ATOM      5  C   UNL     1      -3.420  -0.153   0.653  0.00  0.00    +0.136 A 
ATOM      6  C   UNL     1      -3.030  -0.701  -0.550  0.00  0.00    +0.092 A 
ATOM      7  C   UNL     1      -1.915   0.039  -0.876  0.00  0.00    +0.181 A 
ATOM      8  N   UNL     1      -1.119  -0.142  -2.049  0.00  0.00    -0.197 N 
ATOM      9  N   UNL     1      -1.669   0.963   0.073  0.00  0.00    -0.062 NA
ATOM     10  O   UNL     1      -2.596   0.818   0.975  0.00  0.00    -0.358 OA
ATOM     11  H   UNL     1      -1.378  -0.881  -2.740  0.00  0.00    +0.175 HD
ENDBRANCH   1   8
BRANCH   1  12
ATOM     12  C   UNL     1       1.439   0.615  -1.023  0.00  0.00    +0.109 A 
ATOM     13  C   UNL     1       2.206   1.699  -0.574  0.00  0.00    +0.030 A 
ATOM     14  C   UNL     1       3.113   1.532   0.476  0.00  0.00    +0.024 A 
ATOM     15  C   UNL     1       3.264   0.278   1.086  0.00  0.00    +0.025 A 
ATOM     16  C   UNL     1       2.501  -0.807   0.633  0.00  0.00    +0.024 A 
ATOM     17  C   UNL     1       1.594  -0.640  -0.418  0.00  0.00    +0.030 A 
BRANCH  15  18
ATOM     18  N   UNL     1       4.191   0.108   2.161  0.00  0.00    -0.358 N 
ATOM     19  H   UNL     1       4.311  -0.822   2.622  0.00  0.00    +0.142 HD
ATOM     20  H   UNL     1       4.765   0.910   2.505  0.00  0.00    +0.142 HD
ENDBRANCH  15  18
ENDBRANCH   1  12
TORSDOF 3
