REMARK  Name = 
REMARK  3 active torsions:
REMARK  status: ('A' for Active; 'I' for Inactive)
REMARK    1  A    between atoms: N_1  and  C_2
REMARK    2  A    between atoms: C_5  and  S_8
REMARK    3  A    between atoms: S_8  and  N_11
REMARK                            x       y       z     vdW  Elec       q    Type
REMARK                         _______ _______ _______ _____ _____    ______ ____
ROOT
ATOM      1  S   UNL     1       0.781  -1.621  -1.559  0.00  0.00    +0.074 S 
ATOM      2  O   UNL     1       0.170  -2.510  -2.603  0.00  0.00    -0.150 OA
ATOM      3  O   UNL     1       1.925  -2.346  -0.906  0.00  0.00    -0.150 OA
ENDROOT
BRANCH   1   4
ATOM      4  N   UNL     1       1.385  -0.181  -2.313  0.00  0.00    -0.194 N 
ATOM      5  C   UNL     1       2.020   0.866  -1.573  0.00  0.00    +0.177 A 
ATOM      6  N   UNL     1       2.462   2.002  -2.151  0.00  0.00    -0.232 NA
ATOM      7  C   UNL     1       3.023   2.843  -1.241  0.00  0.00    +0.120 A 
ATOM      8  C   UNL     1       3.030   2.377   0.069  0.00  0.00    +0.068 A 
ATOM      9  S   UNL     1       2.307   0.859   0.087  0.00  0.00    -0.059 S 
ATOM     10  H   UNL     1       1.261  -0.071  -3.344  0.00  0.00    +0.176 HD
ENDBRANCH   1   4
BRANCH   1  14
ATOM     11  C   UNL     1      -2.405  -0.523   1.526  0.00  0.00    +0.025 A 
ATOM     12  C   UNL     1      -1.506  -1.567   1.784  0.00  0.00    +0.024 A 
ATOM     13  C   UNL     1      -0.532  -1.908   0.840  0.00  0.00    +0.030 A 
ATOM     14  C   UNL     1      -0.448  -1.205  -0.369  0.00  0.00    +0.109 A 
ATOM     15  C   UNL     1      -1.350  -0.165  -0.631  0.00  0.00    +0.030 A 
ATOM     16  C   UNL     1      -2.323   0.176   0.313  0.00  0.00    +0.024 A 
BRANCH  11  17
ATOM     17  N   UNL     1      -3.400  -0.174   2.492  0.00  0.00    -0.358 N 
ATOM     18  H   UNL     1      -3.470  -0.689   3.398  0.00  0.00    +0.142 HD
ATOM     19  H   UNL     1      -4.075   0.602   2.308  0.00  0.00    +0.142 HD
ENDBRANCH  11  17
ENDBRANCH   1  14
TORSDOF 3
