REMARK  Name = 
REMARK  8 active torsions:
REMARK  status: ('A' for Active; 'I' for Inactive)
REMARK    1  A    between atoms: C_1  and  O_2
REMARK    2  A    between atoms: O_2  and  C_3
REMARK    3  A    between atoms: C_7  and  N_8
REMARK    4  A    between atoms: N_8  and  S_9
REMARK    5  A    between atoms: S_9  and  C_12
REMARK    6  A    between atoms: C_15  and  N_16
REMARK    7  A    between atoms: C_19  and  O_20
REMARK    8  A    between atoms: O_20  and  C_21
REMARK                            x       y       z     vdW  Elec       q    Type
REMARK                         _______ _______ _______ _____ _____    ______ ____
ROOT
ATOM      1  N   UNL     1      -0.005   0.016   1.112  0.00  0.00    -0.196 N 
ATOM      2  H   UNL     1      -0.614   0.318   1.905  0.00  0.00    +0.175 HD
ENDROOT
BRANCH   1   7
ATOM      3  C   UNL     1       3.517   0.875   0.143  0.00  0.00    +0.263 A 
ATOM      4  N   UNL     1       3.539   2.159   0.591  0.00  0.00    -0.198 NA
ATOM      5  C   UNL     1       2.464   2.716   1.197  0.00  0.00    +0.227 A 
ATOM      6  N   UNL     1       1.327   1.997   1.355  0.00  0.00    -0.216 NA
ATOM      7  C   UNL     1       1.229   0.717   0.910  0.00  0.00    +0.187 A 
ATOM      8  C   UNL     1       2.343   0.100   0.305  0.00  0.00    +0.223 A 
BRANCH   3  10
ATOM      9  C   UNL     1       5.858   1.077  -0.648  0.00  0.00    +0.279 C 
ATOM     10  O   UNL     1       4.656   0.339  -0.466  0.00  0.00    -0.477 OA
ENDBRANCH   3  10
BRANCH   8  11
ATOM     11  O   UNL     1       2.240  -1.250  -0.077  0.00  0.00    -0.488 OA
ATOM     12  C   UNL     1       3.259  -2.036  -0.685  0.00  0.00    +0.277 C 
ENDBRANCH   8  11
ENDBRANCH   1   7
BRANCH   1  13
ATOM     13  S   UNL     1      -0.759  -0.935  -0.128  0.00  0.00    +0.074 S 
ATOM     14  O   UNL     1      -0.422  -2.387   0.065  0.00  0.00    -0.150 OA
ATOM     15  O   UNL     1      -0.278  -0.493  -1.482  0.00  0.00    -0.150 OA
BRANCH  13  16
ATOM     16  C   UNL     1      -2.502  -0.710  -0.038  0.00  0.00    +0.109 A 
ATOM     17  C   UNL     1      -3.114   0.338  -0.740  0.00  0.00    +0.030 A 
ATOM     18  C   UNL     1      -4.497   0.531  -0.653  0.00  0.00    +0.024 A 
ATOM     19  C   UNL     1      -5.278  -0.321   0.144  0.00  0.00    +0.025 A 
ATOM     20  C   UNL     1      -4.665  -1.362   0.853  0.00  0.00    +0.024 A 
ATOM     21  C   UNL     1      -3.282  -1.554   0.765  0.00  0.00    +0.030 A 
BRANCH  19  22
ATOM     22  N   UNL     1      -6.691  -0.138   0.248  0.00  0.00    -0.358 N 
ATOM     23  H   UNL     1      -7.185   0.630  -0.258  0.00  0.00    +0.142 HD
ATOM     24  H   UNL     1      -7.176   0.635  -0.263  0.00  0.00    +0.142 HD
ENDBRANCH  19  22
ENDBRANCH  13  16
ENDBRANCH   1  13
TORSDOF 6
