REMARK  Name = 
REMARK  4 active torsions:
REMARK  status: ('A' for Active; 'I' for Inactive)
REMARK    1  A    between atoms: C_1  and  C_2
REMARK    2  A    between atoms: N_4  and  S_5
REMARK    3  A    between atoms: S_5  and  C_8
REMARK    4  A    between atoms: C_11  and  N_12
REMARK                            x       y       z     vdW  Elec       q    Type
REMARK                         _______ _______ _______ _____ _____    ______ ____
ROOT
ATOM      1  C   UNL     1      -0.588   0.165   0.605  0.00  0.00    +0.109 A 
ATOM      2  C   UNL     1      -1.117   1.388   0.169  0.00  0.00    +0.030 A 
ATOM      3  C   UNL     1      -2.422   1.452  -0.329  0.00  0.00    +0.024 A 
ATOM      4  C   UNL     1      -3.208   0.292  -0.402  0.00  0.00    +0.025 A 
ATOM      5  C   UNL     1      -2.674  -0.932   0.026  0.00  0.00    +0.024 A 
ATOM      6  C   UNL     1      -1.369  -0.995   0.524  0.00  0.00    +0.030 A 
ENDROOT
BRANCH   1   7
ATOM      7  S   UNL     1       1.062   0.082   1.215  0.00  0.00    +0.074 S 
ATOM      8  O   UNL     1       1.166  -1.022   2.230  0.00  0.00    -0.150 OA
ATOM      9  O   UNL     1       1.423   1.387   1.867  0.00  0.00    -0.150 OA
BRANCH   7  13
ATOM     10  C   UNL     1       4.445  -0.624  -1.076  0.00  0.00    +0.111 C 
ATOM     11  C   UNL     1       3.551  -0.361   0.092  0.00  0.00    +0.229 C 
ATOM     12  O   UNL     1       4.050  -0.231   1.243  0.00  0.00    -0.275 OA
ATOM     13  N   UNL     1       2.140  -0.232  -0.104  0.00  0.00    -0.186 N 
ATOM     14  H   UNL     1       1.741  -0.327  -1.064  0.00  0.00    +0.177 HD
ENDBRANCH   7  13
ENDBRANCH   1   7
BRANCH   4  15
ATOM     15  N   UNL     1      -4.542   0.358  -0.912  0.00  0.00    -0.358 N 
ATOM     16  H   UNL     1      -5.134  -0.501  -0.972  0.00  0.00    +0.142 HD
ATOM     17  H   UNL     1      -4.947   1.265  -1.234  0.00  0.00    +0.142 HD
ENDBRANCH   4  15
TORSDOF 3
