REMARK  Name = 
REMARK  10 active torsions:
REMARK  status: ('A' for Active; 'I' for Inactive)
REMARK    1  A    between atoms: O_1  and  S_2
REMARK    2  A    between atoms: S_2  and  C_4
REMARK    3  A    between atoms: C_4  and  N_5
REMARK    4  A    between atoms: N_5  and  C_6
REMARK    5  A    between atoms: C_9  and  S_12
REMARK    6  A    between atoms: S_12  and  C_15
REMARK    7  A    between atoms: C_18  and  N_19
REMARK    8  A    between atoms: N_19  and  C_20
REMARK    9  A    between atoms: C_20  and  S_21
REMARK   10  A    between atoms: S_21  and  O_22
REMARK                            x       y       z     vdW  Elec       q    Type
REMARK                         _______ _______ _______ _____ _____    ______ ____
ROOT
ATOM      1  S   UNL     1      -0.088  -2.694  -0.897  0.00  0.00    +0.025 S 
ATOM      2  O   UNL     1      -0.480  -3.334  -2.200  0.00  0.00    -0.164 OA
ATOM      3  O   UNL     1       0.117  -3.785   0.116  0.00  0.00    -0.164 OA
ENDROOT
BRANCH   1   7
ATOM      4  C   UNL     1      -3.363   0.179   0.505  0.00  0.00    +0.028 A 
ATOM      5  C   UNL     1      -3.159  -0.058  -0.864  0.00  0.00    +0.025 A 
ATOM      6  C   UNL     1      -2.163  -0.941  -1.293  0.00  0.00    +0.029 A 
ATOM      7  C   UNL     1      -1.360  -1.605  -0.358  0.00  0.00    +0.094 A 
ATOM      8  C   UNL     1      -1.550  -1.367   1.009  0.00  0.00    +0.029 A 
ATOM      9  C   UNL     1      -2.545  -0.485   1.440  0.00  0.00    +0.025 A 
BRANCH   4  10
ATOM     10  N   UNL     1      -4.396   1.095   0.915  0.00  0.00    -0.325 N 
ATOM     11  H   UNL     1      -4.954   1.567   0.168  0.00  0.00    +0.148 HD
BRANCH  10  12
ATOM     12  C   UNL     1      -4.686   1.397   2.318  0.00  0.00    +0.278 C 
BRANCH  12  13
ATOM     13  S   UNL     1      -6.066   2.560   2.483  0.00  0.00    +0.012 S 
ATOM     14  O   UNL     1      -5.775   3.671   1.481  0.00  0.00    -0.165 OA
BRANCH  13  15
ATOM     15  O   UNL     1      -7.418   1.746   1.833  0.00  0.00    -0.268 OA
ATOM     16  H   UNL     1      -7.215   1.604   0.875  0.00  0.00    +0.243 HD
ENDBRANCH  13  15
ENDBRANCH  12  13
ENDBRANCH  10  12
ENDBRANCH   4  10
ENDBRANCH   1   7
BRANCH   1  17
ATOM     17  C   UNL     1       1.400  -1.778  -1.101  0.00  0.00    +0.094 A 
ATOM     18  C   UNL     1       1.708  -1.200  -2.338  0.00  0.00    +0.029 A 
ATOM     19  C   UNL     1       2.879  -0.452  -2.492  0.00  0.00    +0.025 A 
ATOM     20  C   UNL     1       3.751  -0.259  -1.409  0.00  0.00    +0.028 A 
ATOM     21  C   UNL     1       3.438  -0.848  -0.169  0.00  0.00    +0.025 A 
ATOM     22  C   UNL     1       2.267  -1.596  -0.017  0.00  0.00    +0.029 A 
BRANCH  20  23
ATOM     23  N   UNL     1       4.950   0.516  -1.604  0.00  0.00    -0.325 N 
ATOM     24  H   UNL     1       5.260   0.709  -2.584  0.00  0.00    +0.148 HD
BRANCH  23  25
ATOM     25  C   UNL     1       5.730   1.128  -0.530  0.00  0.00    +0.278 C 
BRANCH  25  26
ATOM     26  S   UNL     1       4.838   2.540   0.164  0.00  0.00    +0.012 S 
ATOM     27  O   UNL     1       5.887   3.272   0.992  0.00  0.00    -0.165 OA
BRANCH  26  28
ATOM     28  O   UNL     1       3.790   1.878   1.334  0.00  0.00    -0.268 OA
ATOM     29  H   UNL     1       4.378   1.426   1.991  0.00  0.00    +0.243 HD
ENDBRANCH  26  28
ENDBRANCH  25  26
ENDBRANCH  23  25
ENDBRANCH  20  23
ENDBRANCH   1  17
TORSDOF 10
