REMARK  Name = 
REMARK  3 active torsions:
REMARK  status: ('A' for Active; 'I' for Inactive)
REMARK    1  A    between atoms: N_1  and  C_2
REMARK    2  A    between atoms: C_5  and  S_8
REMARK    3  A    between atoms: S_8  and  N_11
REMARK                            x       y       z     vdW  Elec       q    Type
REMARK                         _______ _______ _______ _____ _____    ______ ____
ROOT
ATOM      1  S   UNL     1      -0.291   2.349  -0.346  0.00  0.00    +0.075 S 
ATOM      2  O   UNL     1       0.394   3.521  -0.991  0.00  0.00    -0.150 OA
ATOM      3  O   UNL     1      -1.126   2.840   0.804  0.00  0.00    -0.150 OA
ENDROOT
BRANCH   1   4
ATOM      4  N   UNL     1      -1.327   1.581  -1.503  0.00  0.00    -0.184 N 
ATOM      5  C   UNL     1      -2.069   0.398  -1.189  0.00  0.00    +0.235 A 
ATOM      6  N   UNL     1      -2.002  -0.152   0.055  0.00  0.00    -0.222 NA
ATOM      7  C   UNL     1      -2.696  -1.278   0.361  0.00  0.00    +0.116 A 
ATOM      8  C   UNL     1      -3.494  -1.887  -0.606  0.00  0.00    +0.039 A 
ATOM      9  C   UNL     1      -3.554  -1.312  -1.875  0.00  0.00    +0.116 A 
ATOM     10  N   UNL     1      -2.844  -0.185  -2.143  0.00  0.00    -0.222 NA
ATOM     11  H   UNL     1      -1.395   1.988  -2.462  0.00  0.00    +0.177 HD
ENDBRANCH   1   4
BRANCH   1  15
ATOM     12  C   UNL     1       2.864  -0.623   1.100  0.00  0.00    +0.025 A 
ATOM     13  C   UNL     1       2.283   0.281   2.001  0.00  0.00    +0.024 A 
ATOM     14  C   UNL     1       1.320   1.194   1.561  0.00  0.00    +0.030 A 
ATOM     15  C   UNL     1       0.927   1.210   0.215  0.00  0.00    +0.109 A 
ATOM     16  C   UNL     1       1.511   0.311  -0.687  0.00  0.00    +0.030 A 
ATOM     17  C   UNL     1       2.474  -0.603  -0.247  0.00  0.00    +0.024 A 
BRANCH  12  18
ATOM     18  N   UNL     1       3.848  -1.557   1.551  0.00  0.00    -0.358 N 
ATOM     19  H   UNL     1       4.145  -1.580   2.552  0.00  0.00    +0.142 HD
ATOM     20  H   UNL     1       4.286  -2.234   0.887  0.00  0.00    +0.142 HD
ENDBRANCH  12  18
ENDBRANCH   1  15
TORSDOF 3
