REMARK  Name = 
REMARK  4 active torsions:
REMARK  status: ('A' for Active; 'I' for Inactive)
REMARK    1  A    between atoms: C_1  and  C_2
REMARK    2  A    between atoms: N_5  and  S_6
REMARK    3  A    between atoms: S_6  and  C_9
REMARK    4  A    between atoms: C_12  and  N_13
REMARK                            x       y       z     vdW  Elec       q    Type
REMARK                         _______ _______ _______ _____ _____    ______ ____
ROOT
ATOM      1  S   UNL     1       0.571   1.305   2.117  0.00  0.00    +0.075 S 
ATOM      2  O   UNL     1       1.377   1.319   3.386  0.00  0.00    -0.150 OA
ATOM      3  O   UNL     1      -0.083   2.646   1.935  0.00  0.00    -0.150 OA
ENDROOT
BRANCH   1   8
ATOM      4  C   UNL     1      -4.328  -2.579   0.421  0.00  0.00    +0.066 C 
ATOM      5  C   UNL     1      -3.326  -1.481   0.256  0.00  0.00    +0.043 A 
ATOM      6  N   UNL     1      -2.471  -1.182   1.270  0.00  0.00    -0.219 NA
ATOM      7  C   UNL     1      -1.546  -0.194   1.144  0.00  0.00    +0.235 A 
ATOM      8  N   UNL     1      -0.659   0.090   2.230  0.00  0.00    -0.184 N 
ATOM      9  N   UNL     1      -1.467   0.512  -0.017  0.00  0.00    -0.222 NA
ATOM     10  C   UNL     1      -2.298   0.245  -1.057  0.00  0.00    +0.116 A 
ATOM     11  C   UNL     1      -3.252  -0.765  -0.943  0.00  0.00    +0.043 A 
ATOM     12  H   UNL     1      -0.738  -0.460   3.114  0.00  0.00    +0.177 HD
ENDBRANCH   1   8
BRANCH   1  13
ATOM     13  C   UNL     1       1.639   0.950   0.764  0.00  0.00    +0.109 A 
ATOM     14  C   UNL     1       2.001  -0.376   0.489  0.00  0.00    +0.030 A 
ATOM     15  C   UNL     1       2.842  -0.666  -0.590  0.00  0.00    +0.024 A 
ATOM     16  C   UNL     1       3.333   0.367  -1.401  0.00  0.00    +0.025 A 
ATOM     17  C   UNL     1       2.975   1.694  -1.121  0.00  0.00    +0.024 A 
ATOM     18  C   UNL     1       2.133   1.984  -0.043  0.00  0.00    +0.030 A 
BRANCH  16  19
ATOM     19  N   UNL     1       4.193   0.070  -2.504  0.00  0.00    -0.358 N 
ATOM     20  H   UNL     1       4.465  -0.915  -2.719  0.00  0.00    +0.142 HD
ATOM     21  H   UNL     1       4.563   0.833  -3.113  0.00  0.00    +0.142 HD
ENDBRANCH  16  19
ENDBRANCH   1  13
TORSDOF 3
