REMARK  Name = 
REMARK  6 active torsions:
REMARK  status: ('A' for Active; 'I' for Inactive)
REMARK    1  A    between atoms: C_3  and  C_4
REMARK    2  A    between atoms: C_4  and  C_5
REMARK    3  A    between atoms: C_5  and  S_6
REMARK    4  A    between atoms: S_6  and  C_8
REMARK    5  A    between atoms: N_16  and  C_24
REMARK    6  A    between atoms: N_17  and  C_18
REMARK                            x       y       z     vdW  Elec       q    Type
REMARK                         _______ _______ _______ _____ _____    ______ ____
ROOT
ATOM      1  O   UNL     1      -0.422  -3.135   1.006  0.00  0.00    -0.273 OA
ATOM      2  C   UNL     1      -0.471  -1.876   1.036  0.00  0.00    +0.249 C 
ATOM      3  C   UNL     1       0.601  -1.003   1.615  0.00  0.00    +0.165 C 
ATOM      4  C   UNL     1      -0.068   0.334   1.486  0.00  0.00    +0.249 C 
ATOM      5  O   UNL     1       0.452   1.425   1.843  0.00  0.00    -0.273 OA
ATOM      6  N   UNL     1      -1.353   0.234   0.873  0.00  0.00    -0.180 N 
ATOM      7  N   UNL     1      -1.590  -1.117   0.580  0.00  0.00    -0.180 N 
ENDROOT
BRANCH   7   8
ATOM      8  C   UNL     1      -2.863  -1.666   0.197  0.00  0.00    +0.057 A 
ATOM      9  C   UNL     1      -2.928  -2.731  -0.715  0.00  0.00    +0.025 A 
ATOM     10  C   UNL     1      -4.165  -3.258  -1.098  0.00  0.00    +0.002 A 
ATOM     11  C   UNL     1      -5.345  -2.727  -0.571  0.00  0.00    +0.000 A 
ATOM     12  C   UNL     1      -5.290  -1.669   0.340  0.00  0.00    +0.002 A 
ATOM     13  C   UNL     1      -4.054  -1.139   0.724  0.00  0.00    +0.025 A 
ENDBRANCH   7   8
BRANCH   6  14
ATOM     14  C   UNL     1      -2.056   1.337   0.277  0.00  0.00    +0.057 A 
ATOM     15  C   UNL     1      -2.486   1.270  -1.059  0.00  0.00    +0.025 A 
ATOM     16  C   UNL     1      -3.173   2.344  -1.632  0.00  0.00    +0.002 A 
ATOM     17  C   UNL     1      -3.433   3.492  -0.879  0.00  0.00    +0.000 A 
ATOM     18  C   UNL     1      -3.003   3.568   0.449  0.00  0.00    +0.002 A 
ATOM     19  C   UNL     1      -2.316   2.495   1.026  0.00  0.00    +0.025 A 
ENDBRANCH   6  14
BRANCH   3  20
ATOM     20  C   UNL     1       1.928  -1.087   0.835  0.00  0.00    +0.036 C 
BRANCH  20  21
ATOM     21  C   UNL     1       1.798  -0.736  -0.659  0.00  0.00    +0.110 C 
BRANCH  21  22
ATOM     22  S   UNL     1       3.354  -0.965  -1.559  0.00  0.00    +0.054 S 
ATOM     23  O   UNL     1       3.803  -2.389  -1.257  0.00  0.00    -0.252 OA
BRANCH  22  24
ATOM     24  C   UNL     1       4.571   0.089  -0.791  0.00  0.00    +0.039 A 
ATOM     25  C   UNL     1       4.870   1.327  -1.374  0.00  0.00    +0.017 A 
ATOM     26  C   UNL     1       5.823   2.167  -0.788  0.00  0.00    +0.001 A 
ATOM     27  C   UNL     1       6.482   1.772   0.379  0.00  0.00    +0.000 A 
ATOM     28  C   UNL     1       6.191   0.534   0.961  0.00  0.00    +0.001 A 
ATOM     29  C   UNL     1       5.240  -0.308   0.377  0.00  0.00    +0.017 A 
ENDBRANCH  22  24
ENDBRANCH  21  22
ENDBRANCH  20  21
ENDBRANCH   3  20
TORSDOF 6
