REMARK  Name = 
REMARK  4 active torsions:
REMARK  status: ('A' for Active; 'I' for Inactive)
REMARK    1  A    between atoms: N_1  and  C_2
REMARK    2  A    between atoms: C_5  and  S_8
REMARK    3  A    between atoms: S_8  and  N_11
REMARK    4  A    between atoms: N_11  and  C_12
REMARK                            x       y       z     vdW  Elec       q    Type
REMARK                         _______ _______ _______ _____ _____    ______ ____
ROOT
ATOM      1  S   UNL     1      -0.261  -2.108   1.286  0.00  0.00    +0.073 S 
ATOM      2  O   UNL     1       0.302  -2.903   2.430  0.00  0.00    -0.150 OA
ATOM      3  O   UNL     1      -0.864  -3.053   0.285  0.00  0.00    -0.150 OA
ENDROOT
BRANCH   1   7
ATOM      4  C   UNL     1       3.097   0.341  -0.614  0.00  0.00    +0.025 A 
ATOM      5  C   UNL     1       2.435   0.814   0.528  0.00  0.00    +0.024 A 
ATOM      6  C   UNL     1       1.411   0.060   1.111  0.00  0.00    +0.030 A 
ATOM      7  C   UNL     1       1.037  -1.170   0.554  0.00  0.00    +0.109 A 
ATOM      8  C   UNL     1       1.702  -1.646  -0.584  0.00  0.00    +0.030 A 
ATOM      9  C   UNL     1       2.726  -0.893  -1.166  0.00  0.00    +0.024 A 
BRANCH   4  10
ATOM     10  N   UNL     1       4.143   1.111  -1.210  0.00  0.00    -0.358 N 
ATOM     11  H   UNL     1       4.427   2.032  -0.805  0.00  0.00    +0.142 HD
ATOM     12  H   UNL     1       4.643   0.767  -2.060  0.00  0.00    +0.142 HD
ENDBRANCH   4  10
ENDBRANCH   1   7
BRANCH   1  13
ATOM     13  N   UNL     1      -1.499  -1.047   1.882  0.00  0.00    -0.199 N 
ATOM     14  H   UNL     1      -1.707  -1.080   2.905  0.00  0.00    +0.175 HD
BRANCH  13  15
ATOM     15  C   UNL     1      -2.197  -0.086   1.074  0.00  0.00    +0.138 A 
ATOM     16  C   UNL     1      -2.024  -0.015  -0.321  0.00  0.00    +0.045 A 
ATOM     17  C   UNL     1      -2.727   0.945  -1.052  0.00  0.00    +0.005 A 
ATOM     18  C   UNL     1      -3.595   1.820  -0.399  0.00  0.00    +0.020 A 
ATOM     19  C   UNL     1      -3.749   1.720   0.985  0.00  0.00    +0.113 A 
ATOM     20  N   UNL     1      -3.055   0.780   1.681  0.00  0.00    -0.239 NA
ENDBRANCH  13  15
ENDBRANCH   1  13
TORSDOF 4
