REMARK  Name = 
REMARK  4 active torsions:
REMARK  status: ('A' for Active; 'I' for Inactive)
REMARK    1  A    between atoms: C_1  and  C_2
REMARK    2  A    between atoms: N_6  and  S_7
REMARK    3  A    between atoms: S_7  and  C_10
REMARK    4  A    between atoms: C_13  and  N_14
REMARK                            x       y       z     vdW  Elec       q    Type
REMARK                         _______ _______ _______ _____ _____    ______ ____
ROOT
ATOM      1  S   UNL     1       0.175  -1.711  -1.948  0.00  0.00    +0.074 S 
ATOM      2  O   UNL     1      -0.659  -1.068  -3.021  0.00  0.00    -0.150 OA
ATOM      3  O   UNL     1       1.056  -2.756  -2.572  0.00  0.00    -0.150 OA
ENDROOT
BRANCH   1   9
ATOM      4  C   UNL     1      -4.093   0.996   1.552  0.00  0.00    +0.075 C 
ATOM      5  C   UNL     1      -3.264  -0.149   1.080  0.00  0.00    +0.101 A 
ATOM      6  N   UNL     1      -3.430  -1.419   1.510  0.00  0.00    -0.145 NA
ATOM      7  N   UNL     1      -2.623  -2.290   0.905  0.00  0.00    -0.125 NA
ATOM      8  C   UNL     1      -1.822  -1.717  -0.019  0.00  0.00    +0.201 A 
ATOM      9  N   UNL     1      -0.875  -2.461  -0.792  0.00  0.00    -0.192 N 
ATOM     10  S   UNL     1      -2.094  -0.055  -0.129  0.00  0.00    -0.035 S 
ATOM     11  H   UNL     1      -0.798  -3.491  -0.644  0.00  0.00    +0.176 HD
ENDBRANCH   1   9
BRANCH   1  12
ATOM     12  C   UNL     1       1.188  -0.512  -1.149  0.00  0.00    +0.109 A 
ATOM     13  C   UNL     1       1.694  -0.767   0.132  0.00  0.00    +0.030 A 
ATOM     14  C   UNL     1       2.490   0.184   0.776  0.00  0.00    +0.024 A 
ATOM     15  C   UNL     1       2.791   1.398   0.143  0.00  0.00    +0.025 A 
ATOM     16  C   UNL     1       2.289   1.651  -1.142  0.00  0.00    +0.024 A 
ATOM     17  C   UNL     1       1.492   0.699  -1.786  0.00  0.00    +0.030 A 
BRANCH  15  18
ATOM     18  N   UNL     1       3.604   2.372   0.802  0.00  0.00    -0.358 N 
ATOM     19  H   UNL     1       3.834   3.279   0.338  0.00  0.00    +0.142 HD
ATOM     20  H   UNL     1       3.983   2.193   1.759  0.00  0.00    +0.142 HD
ENDBRANCH  15  18
ENDBRANCH   1  12
TORSDOF 3
