REMARK  Name = 
REMARK  6 active torsions:
REMARK  status: ('A' for Active; 'I' for Inactive)
REMARK    1  A    between atoms: C_1  and  C_2
REMARK    2  A    between atoms: C_5  and  N_6
REMARK    3  A    between atoms: N_6  and  S_7
REMARK    4  A    between atoms: S_7  and  C_10
REMARK    5  A    between atoms: C_13  and  N_14
REMARK    6  A    between atoms: C_17  and  C_18
REMARK                            x       y       z     vdW  Elec       q    Type
REMARK                         _______ _______ _______ _____ _____    ______ ____
ROOT
ATOM      1  S   UNL     1       0.342  -0.843   2.403  0.00  0.00    +0.075 S 
ATOM      2  O   UNL     1       1.269  -1.688   3.230  0.00  0.00    -0.150 OA
ATOM      3  O   UNL     1      -0.713  -0.257   3.300  0.00  0.00    -0.150 OA
ENDROOT
BRANCH   1   4
ATOM      4  C   UNL     1       1.272   0.429   1.617  0.00  0.00    +0.109 A 
ATOM      5  C   UNL     1       2.229   0.089   0.652  0.00  0.00    +0.030 A 
ATOM      6  C   UNL     1       2.961   1.088   0.003  0.00  0.00    +0.024 A 
ATOM      7  C   UNL     1       2.740   2.438   0.314  0.00  0.00    +0.025 A 
ATOM      8  C   UNL     1       1.785   2.778   1.282  0.00  0.00    +0.024 A 
ATOM      9  C   UNL     1       1.052   1.778   1.930  0.00  0.00    +0.030 A 
BRANCH   7  10
ATOM     10  N   UNL     1       3.485   3.461  -0.354  0.00  0.00    -0.358 N 
ATOM     11  H   UNL     1       3.316   4.470  -0.143  0.00  0.00    +0.142 HD
ATOM     12  H   UNL     1       4.202   3.216  -1.073  0.00  0.00    +0.142 HD
ENDBRANCH   7  10
ENDBRANCH   1   4
BRANCH   1  13
ATOM     13  N   UNL     1      -0.419  -1.825   1.199  0.00  0.00    -0.183 N 
ATOM     14  H   UNL     1      -0.195  -2.844   1.165  0.00  0.00    +0.177 HD
BRANCH  13  19
ATOM     15  C   UNL     1      -3.462  -1.055  -2.678  0.00  0.00    +0.069 C 
ATOM     16  C   UNL     1      -2.607  -0.905  -1.462  0.00  0.00    +0.085 A 
ATOM     17  N   UNL     1      -2.423   0.264  -0.813  0.00  0.00    -0.081 NA
ATOM     18  O   UNL     1      -1.630   0.022   0.192  0.00  0.00    -0.338 OA
ATOM     19  C   UNL     1      -1.296  -1.248   0.229  0.00  0.00    +0.240 A 
ATOM     20  C   UNL     1      -1.914  -1.909  -0.810  0.00  0.00    +0.035 A 
ATOM     21  C   UNL     1      -1.773  -3.347  -1.200  0.00  0.00    +0.051 C 
ENDBRANCH  13  19
ENDBRANCH   1  13
TORSDOF 4
