REMARK  Name = 
REMARK  5 active torsions:
REMARK  status: ('A' for Active; 'I' for Inactive)
REMARK    1  A    between atoms: C_1  and  O_2
REMARK    2  A    between atoms: O_2  and  C_3
REMARK    3  A    between atoms: N_9  and  S_10
REMARK    4  A    between atoms: S_10  and  C_13
REMARK    5  A    between atoms: C_16  and  N_17
REMARK                            x       y       z     vdW  Elec       q    Type
REMARK                         _______ _______ _______ _____ _____    ______ ____
ROOT
ATOM      1  S   UNL     1      -0.195   0.905  -2.156  0.00  0.00    +0.074 S 
ATOM      2  O   UNL     1      -1.218   1.897  -1.678  0.00  0.00    -0.150 OA
ATOM      3  O   UNL     1       0.276   1.317  -3.522  0.00  0.00    -0.150 OA
ENDROOT
BRANCH   1  10
ATOM      4  C   UNL     1      -2.115  -0.761  -0.066  0.00  0.00    +0.257 A 
ATOM      5  N   UNL     1      -3.194  -1.190   0.647  0.00  0.00    -0.217 NA
ATOM      6  C   UNL     1      -4.178  -1.929   0.074  0.00  0.00    +0.134 A 
ATOM      7  C   UNL     1      -4.079  -2.270  -1.274  0.00  0.00    +0.133 A 
ATOM      8  N   UNL     1      -3.011  -1.841  -1.993  0.00  0.00    -0.233 NA
ATOM      9  C   UNL     1      -2.030  -1.078  -1.437  0.00  0.00    +0.201 A 
ATOM     10  N   UNL     1      -0.927  -0.666  -2.257  0.00  0.00    -0.195 N 
ATOM     11  H   UNL     1      -0.727  -1.220  -3.119  0.00  0.00    +0.175 HD
BRANCH   4  13
ATOM     12  C   UNL     1      -1.127   0.297   1.947  0.00  0.00    +0.279 C 
ATOM     13  O   UNL     1      -1.098  -0.040   0.566  0.00  0.00    -0.477 OA
ENDBRANCH   4  13
ENDBRANCH   1  10
BRANCH   1  14
ATOM     14  C   UNL     1       1.181   0.868  -1.059  0.00  0.00    +0.109 A 
ATOM     15  C   UNL     1       1.940  -0.302  -0.922  0.00  0.00    +0.030 A 
ATOM     16  C   UNL     1       3.019  -0.341  -0.034  0.00  0.00    +0.024 A 
ATOM     17  C   UNL     1       3.353   0.793   0.721  0.00  0.00    +0.025 A 
ATOM     18  C   UNL     1       2.597   1.966   0.578  0.00  0.00    +0.024 A 
ATOM     19  C   UNL     1       1.518   2.003  -0.310  0.00  0.00    +0.030 A 
BRANCH  17  20
ATOM     20  N   UNL     1       4.455   0.753   1.631  0.00  0.00    -0.358 N 
ATOM     21  H   UNL     1       5.024  -0.116   1.744  0.00  0.00    +0.142 HD
ATOM     22  H   UNL     1       4.711   1.592   2.197  0.00  0.00    +0.142 HD
ENDBRANCH  17  20
ENDBRANCH   1  14
TORSDOF 4
