REMARK  Name = 
REMARK  5 active torsions:
REMARK  status: ('A' for Active; 'I' for Inactive)
REMARK    1  A    between atoms: C_1  and  C_2
REMARK    2  A    between atoms: C_3  and  C_4
REMARK    3  A    between atoms: N_7  and  S_8
REMARK    4  A    between atoms: S_8  and  C_11
REMARK    5  A    between atoms: C_14  and  N_15
REMARK                            x       y       z     vdW  Elec       q    Type
REMARK                         _______ _______ _______ _____ _____    ______ ____
ROOT
ATOM      1  S   UNL     1      -0.485  -2.537  -1.286  0.00  0.00    +0.076 S 
ATOM      2  O   UNL     1       0.127  -3.474  -0.282  0.00  0.00    -0.150 OA
ATOM      3  O   UNL     1      -1.242  -3.346  -2.301  0.00  0.00    -0.150 OA
ENDROOT
BRANCH   1  10
ATOM      4  C   UNL     1       2.460   1.090   1.566  0.00  0.00    +0.088 C 
ATOM      5  C   UNL     1       2.284   0.493   0.210  0.00  0.00    +0.127 A 
ATOM      6  C   UNL     1       2.989   0.796  -0.937  0.00  0.00    +0.081 A 
ATOM      7  C   UNL     1       4.066   1.822  -1.075  0.00  0.00    +0.069 C 
ATOM      8  N   UNL     1       2.524   0.048  -1.956  0.00  0.00    -0.199 NA
ATOM      9  C   UNL     1       1.556  -0.689  -1.369  0.00  0.00    +0.308 A 
ATOM     10  N   UNL     1       0.769  -1.646  -2.079  0.00  0.00    -0.169 N 
ATOM     11  O   UNL     1       1.409  -0.433  -0.088  0.00  0.00    -0.429 OA
ATOM     12  H   UNL     1       0.939  -1.802  -3.097  0.00  0.00    +0.178 HD
ENDBRANCH   1  10
BRANCH   1  13
ATOM     13  C   UNL     1      -1.595  -1.419  -0.498  0.00  0.00    +0.109 A 
ATOM     14  C   UNL     1      -1.597  -1.278   0.896  0.00  0.00    +0.030 A 
ATOM     15  C   UNL     1      -2.462  -0.368   1.510  0.00  0.00    +0.024 A 
ATOM     16  C   UNL     1      -3.333   0.411   0.735  0.00  0.00    +0.025 A 
ATOM     17  C   UNL     1      -3.327   0.272  -0.661  0.00  0.00    +0.024 A 
ATOM     18  C   UNL     1      -2.461  -0.637  -1.274  0.00  0.00    +0.030 A 
BRANCH  16  19
ATOM     19  N   UNL     1      -4.217   1.343   1.362  0.00  0.00    -0.358 N 
ATOM     20  H   UNL     1      -4.868   1.929   0.793  0.00  0.00    +0.142 HD
ATOM     21  H   UNL     1      -4.228   1.454   2.401  0.00  0.00    +0.142 HD
ENDBRANCH  16  19
ENDBRANCH   1  13
TORSDOF 3
