REMARK  Name = 
REMARK  7 active torsions:
REMARK  status: ('A' for Active; 'I' for Inactive)
REMARK    1  A    between atoms: O_1  and  C_2
REMARK    2  A    between atoms: C_2  and  C_4
REMARK    3  A    between atoms: C_6  and  N_11
REMARK    4  A    between atoms: C_9  and  O_10
REMARK    5  A    between atoms: N_12  and  C_13
REMARK    6  A    between atoms: C_16  and  S_19
REMARK    7  A    between atoms: S_19  and  N_22
REMARK                            x       y       z     vdW  Elec       q    Type
REMARK                         _______ _______ _______ _____ _____    ______ ____
ROOT
ATOM      1  C   UNL     1       0.064  -0.699   0.821  0.00  0.00    +0.086 A 
ATOM      2  C   UNL     1      -0.847  -1.707   0.483  0.00  0.00    +0.031 A 
ATOM      3  C   UNL     1      -2.155  -1.673   0.976  0.00  0.00    +0.031 A 
ATOM      4  C   UNL     1      -2.567  -0.626   1.811  0.00  0.00    +0.109 A 
ATOM      5  C   UNL     1      -1.657   0.382   2.156  0.00  0.00    +0.031 A 
ATOM      6  C   UNL     1      -0.349   0.349   1.665  0.00  0.00    +0.031 A 
ENDROOT
BRANCH   4   7
ATOM      7  S   UNL     1      -4.220  -0.583   2.416  0.00  0.00    +0.073 S 
ATOM      8  O   UNL     1      -4.315  -1.467   3.626  0.00  0.00    -0.150 OA
ATOM      9  O   UNL     1      -4.608   0.817   2.802  0.00  0.00    -0.150 OA
BRANCH   7  10
ATOM     10  N   UNL     1      -5.315  -1.159   1.198  0.00  0.00    -0.199 N 
ATOM     11  C   UNL     1      -5.420  -0.602  -0.121  0.00  0.00    +0.138 A 
ATOM     12  N   UNL     1      -6.215  -1.226  -1.035  0.00  0.00    -0.239 NA
ATOM     13  C   UNL     1      -6.362  -0.763  -2.305  0.00  0.00    +0.113 A 
ATOM     14  C   UNL     1      -5.689   0.390  -2.710  0.00  0.00    +0.020 A 
ATOM     15  C   UNL     1      -4.871   1.057  -1.798  0.00  0.00    +0.005 A 
ATOM     16  C   UNL     1      -4.733   0.567  -0.497  0.00  0.00    +0.045 A 
ATOM     17  H   UNL     1      -5.889  -2.000   1.430  0.00  0.00    +0.175 HD
ENDBRANCH   7  10
ENDBRANCH   4   7
BRANCH   1  19
ATOM     18  N   UNL     1       2.272   0.120   0.565  0.00  0.00    -0.149 NA
ATOM     19  N   UNL     1       1.395  -0.763   0.298  0.00  0.00    -0.149 NA
BRANCH  18  22
ATOM     20  C   UNL     1       5.829   1.051  -0.117  0.00  0.00    +0.102 A 
ATOM     21  C   UNL     1       4.513   1.064   0.381  0.00  0.00    +0.048 A 
ATOM     22  C   UNL     1       3.604   0.056   0.042  0.00  0.00    +0.087 A 
ATOM     23  C   UNL     1       4.012  -0.983  -0.809  0.00  0.00    +0.033 A 
ATOM     24  C   UNL     1       5.320  -1.019  -1.294  0.00  0.00    +0.048 A 
ATOM     25  C   UNL     1       6.241  -0.026  -0.940  0.00  0.00    +0.131 A 
BRANCH  20  26
ATOM     26  C   UNL     1       6.721   2.185   0.209  0.00  0.00    +0.340 C 
ATOM     27  O   UNL     1       6.623   2.763   1.325  0.00  0.00    -0.245 OA
BRANCH  26  28
ATOM     28  O   UNL     1       7.632   2.663  -0.729  0.00  0.00    -0.477 OA
ATOM     29  H   UNL     1       8.232   3.451  -0.516  0.00  0.00    +0.295 HD
ENDBRANCH  26  28
ENDBRANCH  20  26
BRANCH  25  30
ATOM     30  O   UNL     1       7.554  -0.166  -1.395  0.00  0.00    -0.506 OA
ATOM     31  H   UNL     1       8.323   0.395  -1.055  0.00  0.00    +0.292 HD
ENDBRANCH  25  30
ENDBRANCH  18  22
ENDBRANCH   1  19
TORSDOF 7
