REMARK  Name = 
REMARK  3 active torsions:
REMARK  status: ('A' for Active; 'I' for Inactive)
REMARK    1  A    between atoms: N_1  and  C_2
REMARK    2  A    between atoms: C_5  and  S_8
REMARK    3  A    between atoms: S_8  and  N_9
REMARK                            x       y       z     vdW  Elec       q    Type
REMARK                         _______ _______ _______ _____ _____    ______ ____
ROOT
ATOM      1  C   UNL     1       2.010   0.107   0.071  0.00  0.00    +0.025 A 
ATOM      2  C   UNL     1       1.319  -0.707   0.979  0.00  0.00    +0.024 A 
ATOM      3  C   UNL     1      -0.056  -0.914   0.834  0.00  0.00    +0.030 A 
ATOM      4  C   UNL     1      -0.752  -0.314  -0.225  0.00  0.00    +0.105 A 
ATOM      5  C   UNL     1      -0.063   0.507  -1.128  0.00  0.00    +0.030 A 
ATOM      6  C   UNL     1       1.312   0.715  -0.983  0.00  0.00    +0.024 A 
ENDROOT
BRANCH   1   7
ATOM      7  N   UNL     1       3.417   0.320   0.220  0.00  0.00    -0.358 N 
ATOM      8  H   UNL     1       3.940   0.926  -0.451  0.00  0.00    +0.142 HD
ATOM      9  H   UNL     1       3.945  -0.127   1.003  0.00  0.00    +0.142 HD
ENDBRANCH   1   7
BRANCH   4  10
ATOM     10  S   UNL     1      -2.486  -0.561  -0.398  0.00  0.00    +0.056 S 
ATOM     11  O   UNL     1      -2.869  -0.485  -1.849  0.00  0.00    -0.153 OA
ATOM     12  O   UNL     1      -2.862  -1.918   0.128  0.00  0.00    -0.153 OA
BRANCH  10  13
ATOM     13  N   UNL     1      -3.338   0.656   0.486  0.00  0.00    -0.204 NA
ATOM     14  H   UNL     1      -3.013   0.596   1.477  0.00  0.00    +0.144 HD
ATOM     15  H   UNL     1      -3.017   1.580   0.119  0.00  0.00    +0.144 HD
ENDBRANCH  10  13
ENDBRANCH   4  10
TORSDOF 3
