REMARK  Name = 
REMARK  8 active torsions:
REMARK  status: ('A' for Active; 'I' for Inactive)
REMARK    1  A    between atoms: C_1  and  O_2
REMARK    2  A    between atoms: O_2  and  C_3
REMARK    3  A    between atoms: C_5  and  O_6
REMARK    4  A    between atoms: O_6  and  C_7
REMARK    5  A    between atoms: C_9  and  N_10
REMARK    6  A    between atoms: N_10  and  S_11
REMARK    7  A    between atoms: S_11  and  C_14
REMARK    8  A    between atoms: C_17  and  N_18
REMARK                            x       y       z     vdW  Elec       q    Type
REMARK                         _______ _______ _______ _____ _____    ______ ____
ROOT
ATOM      1  N   UNL     1      -0.253   0.942  -2.457  0.00  0.00    -0.199 N 
ATOM      2  H   UNL     1      -0.242   1.813  -3.032  0.00  0.00    +0.175 HD
ENDROOT
BRANCH   1   7
ATOM      3  C   UNL     1      -1.945  -0.164   0.694  0.00  0.00    +0.222 A 
ATOM      4  N   UNL     1      -2.565   1.000   1.026  0.00  0.00    -0.160 NA
ATOM      5  C   UNL     1      -2.442   2.109   0.248  0.00  0.00    +0.323 A 
ATOM      6  N   UNL     1      -1.686   2.061  -0.879  0.00  0.00    -0.178 NA
ATOM      7  C   UNL     1      -1.041   0.924  -1.256  0.00  0.00    +0.148 A 
ATOM      8  C   UNL     1      -1.168  -0.227  -0.463  0.00  0.00    +0.112 A 
BRANCH   3  10
ATOM      9  C   UNL     1      -2.849  -1.313   2.692  0.00  0.00    +0.279 C 
ATOM     10  O   UNL     1      -2.076  -1.301   1.497  0.00  0.00    -0.479 OA
ENDBRANCH   3  10
BRANCH   5  11
ATOM     11  O   UNL     1      -3.084   3.301   0.594  0.00  0.00    -0.466 OA
ATOM     12  C   UNL     1      -3.891   3.430   1.758  0.00  0.00    +0.280 C 
ENDBRANCH   5  11
ENDBRANCH   1   7
BRANCH   1  13
ATOM     13  S   UNL     1       0.771  -0.363  -2.970  0.00  0.00    +0.073 S 
ATOM     14  O   UNL     1      -0.084  -1.555  -3.301  0.00  0.00    -0.150 OA
ATOM     15  O   UNL     1       1.526   0.053  -4.200  0.00  0.00    -0.150 OA
BRANCH  13  16
ATOM     16  C   UNL     1       1.927  -0.758  -1.702  0.00  0.00    +0.109 A 
ATOM     17  C   UNL     1       2.484   0.263  -0.921  0.00  0.00    +0.030 A 
ATOM     18  C   UNL     1       3.393  -0.045   0.096  0.00  0.00    +0.024 A 
ATOM     19  C   UNL     1       3.756  -1.378   0.338  0.00  0.00    +0.025 A 
ATOM     20  C   UNL     1       3.202  -2.398  -0.448  0.00  0.00    +0.024 A 
ATOM     21  C   UNL     1       2.293  -2.090  -1.464  0.00  0.00    +0.030 A 
BRANCH  19  22
ATOM     22  N   UNL     1       4.685  -1.693   1.378  0.00  0.00    -0.358 N 
ATOM     23  H   UNL     1       5.103  -0.940   1.969  0.00  0.00    +0.142 HD
ATOM     24  H   UNL     1       4.961  -2.683   1.566  0.00  0.00    +0.142 HD
ENDBRANCH  19  22
ENDBRANCH  13  16
ENDBRANCH   1  13
TORSDOF 6
