REMARK  Name = 
REMARK  7 active torsions:
REMARK  status: ('A' for Active; 'I' for Inactive)
REMARK    1  A    between atoms: C_1  and  C_2
REMARK    2  A    between atoms: C_3  and  C_4
REMARK    3  A    between atoms: C_4  and  C_5
REMARK    4  A    between atoms: C_5  and  O_6
REMARK    5  A    between atoms: C_16  and  C_17
REMARK    6  A    between atoms: C_20  and  S_23
REMARK    7  A    between atoms: S_23  and  C_24
REMARK                            x       y       z     vdW  Elec       q    Type
REMARK                         _______ _______ _______ _____ _____    ______ ____
ROOT
ATOM      1  C   UNL     1      -2.052   3.183   0.142  0.00  0.00    +0.044 C 
ATOM      2  C   UNL     1      -2.029   1.679   0.107  0.00  0.00    -0.038 C 
ATOM      3  C   UNL     1      -3.093   0.870   0.246  0.00  0.00    -0.025 C 
ATOM      4  C   UNL     1      -2.637  -0.517   0.136  0.00  0.00    -0.011 A 
ATOM      5  C   UNL     1      -3.386  -1.697   0.173  0.00  0.00    +0.047 A 
ATOM      6  C   UNL     1      -2.728  -2.914  -0.062  0.00  0.00    +0.124 A 
ATOM      7  F   UNL     1      -3.428  -4.076  -0.036  0.00  0.00    -0.205 F 
ATOM      8  C   UNL     1      -1.353  -2.931  -0.359  0.00  0.00    +0.039 A 
ATOM      9  C   UNL     1      -0.619  -1.735  -0.400  0.00  0.00    +0.012 A 
ATOM     10  C   UNL     1      -1.278  -0.533  -0.105  0.00  0.00    -0.010 A 
ATOM     11  C   UNL     1      -0.817   0.864  -0.119  0.00  0.00    -0.014 C 
ATOM     12  C   UNL     1       0.420   1.357  -0.304  0.00  0.00    +0.016 C 
ENDROOT
BRANCH  12  13
ATOM     13  C   UNL     1       1.649   0.548  -0.327  0.00  0.00    -0.024 A 
ATOM     14  C   UNL     1       2.527   0.653  -1.414  0.00  0.00    +0.009 A 
ATOM     15  C   UNL     1       3.727  -0.064  -1.421  0.00  0.00    +0.018 A 
ATOM     16  C   UNL     1       4.070  -0.873  -0.328  0.00  0.00    +0.039 A 
ATOM     17  C   UNL     1       3.207  -0.958   0.771  0.00  0.00    +0.018 A 
ATOM     18  C   UNL     1       2.006  -0.242   0.778  0.00  0.00    +0.009 A 
BRANCH  16  19
ATOM     19  S   UNL     1       5.601  -1.782  -0.318  0.00  0.00    +0.051 S 
ATOM     20  C   UNL     1       6.892  -0.527  -0.436  0.00  0.00    +0.127 C 
ATOM     21  O   UNL     1       5.625  -2.495  -1.664  0.00  0.00    -0.252 OA
ENDBRANCH  16  19
ENDBRANCH  12  13
BRANCH   3  22
ATOM     22  C   UNL     1      -4.515   1.293   0.506  0.00  0.00    +0.156 C 
BRANCH  22  23
ATOM     23  C   UNL     1      -4.771   1.376   1.980  0.00  0.00    +0.309 C 
ATOM     24  O   UNL     1      -4.371   2.378   2.631  0.00  0.00    -0.251 OA
BRANCH  23  25
ATOM     25  O   UNL     1      -5.429   0.347   2.648  0.00  0.00    -0.480 OA
ATOM     26  H   UNL     1      -5.760  -0.476   2.156  0.00  0.00    +0.295 HD
ENDBRANCH  23  25
ENDBRANCH  22  23
ENDBRANCH   3  22
TORSDOF 5
