REMARK  Name = 
REMARK  9 active torsions:
REMARK  status: ('A' for Active; 'I' for Inactive)
REMARK    1  A    between atoms: C_1  and  C_2
REMARK    2  A    between atoms: C_2  and  N_3
REMARK    3  A    between atoms: C_7  and  C_8
REMARK    4  A    between atoms: C_8  and  N_9
REMARK    5  A    between atoms: C_10  and  C_12
REMARK    6  A    between atoms: C_13  and  O_14
REMARK    7  A    between atoms: O_14  and  C_15
REMARK    8  A    between atoms: C_18  and  S_20
REMARK    9  A    between atoms: S_20  and  N_21
REMARK                            x       y       z     vdW  Elec       q    Type
REMARK                         _______ _______ _______ _____ _____    ______ ____
ROOT
ATOM      1  C   UNL     1       2.118  -0.391  -0.005  0.00  0.00    +0.080 A 
ATOM      2  C   UNL     1       2.780  -0.626  -1.230  0.00  0.00    +0.132 A 
ATOM      3  C   UNL     1       4.164  -0.377  -1.323  0.00  0.00    +0.048 A 
ATOM      4  C   UNL     1       4.879   0.079  -0.215  0.00  0.00    +0.032 A 
ATOM      5  C   UNL     1       4.229   0.296   1.004  0.00  0.00    +0.106 A 
ATOM      6  C   UNL     1       2.856   0.050   1.108  0.00  0.00    +0.045 A 
ENDROOT
BRANCH   1   8
ATOM      7  N   UNL     1      -0.250  -0.247  -0.902  0.00  0.00    -0.310 N 
ATOM      8  C   UNL     1       0.663  -0.618   0.144  0.00  0.00    +0.248 C 
ATOM      9  O   UNL     1       0.224  -1.112   1.218  0.00  0.00    -0.270 OA
ATOM     10  H   UNL     1       0.099   0.341  -1.692  0.00  0.00    +0.149 HD
BRANCH   7  11
ATOM     11  C   UNL     1      -1.693  -0.468  -0.810  0.00  0.00    +0.123 C 
BRANCH  11  16
ATOM     12  N   UNL     1      -3.870   0.862  -0.547  0.00  0.00    -0.298 NA
ATOM     13  C   UNL     1      -4.298   1.967   0.333  0.00  0.00    +0.085 C 
ATOM     14  C   UNL     1      -3.311   2.060   1.498  0.00  0.00    +0.017 C 
ATOM     15  C   UNL     1      -2.155   1.153   1.124  0.00  0.00    +0.022 C 
ATOM     16  C   UNL     1      -2.405   0.821  -0.340  0.00  0.00    +0.074 C 
BRANCH  12  18
ATOM     17  C   UNL     1      -5.994  -0.406  -0.764  0.00  0.00    +0.020 C 
ATOM     18  C   UNL     1      -4.577  -0.395  -0.189  0.00  0.00    +0.081 C 
ENDBRANCH  12  18
ENDBRANCH  11  16
ENDBRANCH   7  11
ENDBRANCH   1   8
BRANCH   5  19
ATOM     19  S   UNL     1       5.140   0.848   2.406  0.00  0.00    +0.056 S 
ATOM     20  O   UNL     1       4.253   1.673   3.296  0.00  0.00    -0.153 OA
ATOM     21  O   UNL     1       6.298   1.696   1.960  0.00  0.00    -0.153 OA
BRANCH  19  22
ATOM     22  N   UNL     1       5.726  -0.520   3.285  0.00  0.00    -0.204 NA
ATOM     23  H   UNL     1       6.368  -1.041   2.646  0.00  0.00    +0.144 HD
ATOM     24  H   UNL     1       6.312  -0.153   4.067  0.00  0.00    +0.144 HD
ENDBRANCH  19  22
ENDBRANCH   5  19
BRANCH   2  25
ATOM     25  O   UNL     1       2.051  -1.131  -2.320  0.00  0.00    -0.494 OA
ATOM     26  C   UNL     1       2.599  -1.409  -3.604  0.00  0.00    +0.277 C 
ENDBRANCH   2  25
TORSDOF 7
