REMARK  Name = 
REMARK  9 active torsions:
REMARK  status: ('A' for Active; 'I' for Inactive)
REMARK    1  A    between atoms: C_1  and  N_2
REMARK    2  A    between atoms: N_2  and  S_3
REMARK    3  A    between atoms: S_3  and  C_6
REMARK    4  A    between atoms: C_6  and  C_7
REMARK    5  A    between atoms: C_13  and  C_14
REMARK    6  A    between atoms: C_14  and  C_15
REMARK    7  A    between atoms: C_15  and  N_16
REMARK    8  A    between atoms: N_16  and  C_17
REMARK    9  A    between atoms: N_16  and  C_18
REMARK                            x       y       z     vdW  Elec       q    Type
REMARK                         _______ _______ _______ _____ _____    ______ ____
ROOT
ATOM      1  C   UNL     1       1.907   0.578   0.188  0.00  0.00    -0.024 A 
ATOM      2  C   UNL     1       0.726  -0.180   0.355  0.00  0.00    +0.015 A 
ATOM      3  C   UNL     1      -0.232  -0.133  -0.656  0.00  0.00    +0.003 A 
ATOM      4  C   UNL     1      -0.056   0.623  -1.785  0.00  0.00    +0.047 A 
ATOM      5  N   UNL     1      -1.121   0.526  -2.601  0.00  0.00    -0.360 N 
ATOM      6  C   UNL     1      -1.991  -0.304  -1.982  0.00  0.00    +0.087 A 
ATOM      7  C   UNL     1      -1.465  -0.744  -0.771  0.00  0.00    -0.021 A 
ATOM      8  C   UNL     1       1.094   1.382  -1.985  0.00  0.00    +0.026 A 
ATOM      9  C   UNL     1       2.084   1.353  -0.987  0.00  0.00    +0.007 A 
ATOM     10  H   UNL     1      -1.258   1.004  -3.519  0.00  0.00    +0.165 HD
ENDROOT
BRANCH   1  11
ATOM     11  C   UNL     1       2.982   0.532   1.237  0.00  0.00    +0.220 C 
BRANCH  11  12
ATOM     12  S   UNL     1       3.981  -0.943   1.064  0.00  0.00    +0.033 S 
ATOM     13  O   UNL     1       5.059  -0.929   2.111  0.00  0.00    -0.158 OA
ATOM     14  O   UNL     1       3.113  -2.150   1.283  0.00  0.00    -0.158 OA
BRANCH  12  16
ATOM     15  C   UNL     1       5.700   0.002  -0.685  0.00  0.00    +0.127 C 
ATOM     16  N   UNL     1       4.698  -1.048  -0.517  0.00  0.00    -0.197 NA
ATOM     17  H   UNL     1       3.941  -0.891  -1.220  0.00  0.00    +0.147 HD
ENDBRANCH  12  16
ENDBRANCH  11  12
ENDBRANCH   1  11
BRANCH   7  18
ATOM     18  C   UNL     1      -2.155  -1.613   0.239  0.00  0.00    +0.052 C 
BRANCH  18  19
ATOM     19  C   UNL     1      -2.784  -0.776   1.361  0.00  0.00    +0.088 C 
BRANCH  19  20
ATOM     20  N   UNL     1      -3.715   0.241   0.823  0.00  0.00    -0.308 NA
ATOM     21  C   UNL     1      -5.032  -0.349   0.525  0.00  0.00    +0.104 C 
ATOM     22  C   UNL     1      -3.877   1.341   1.787  0.00  0.00    +0.104 C 
ENDBRANCH  19  20
ENDBRANCH  18  19
ENDBRANCH   7  18
TORSDOF 6
