REMARK  Name = 
REMARK  11 active torsions:
REMARK  status: ('A' for Active; 'I' for Inactive)
REMARK    1  A    between atoms: C_1  and  C_2
REMARK    2  A    between atoms: C_2  and  N_3
REMARK    3  A    between atoms: N_3  and  C_4
REMARK    4  A    between atoms: N_3  and  C_6
REMARK    5  A    between atoms: C_4  and  C_5
REMARK    6  A    between atoms: C_6  and  C_7
REMARK    7  A    between atoms: C_7  and  N_8
REMARK    8  A    between atoms: C_9  and  C_11
REMARK    9  A    between atoms: C_12  and  C_13
REMARK   10  A    between atoms: C_15  and  C_16
REMARK   11  A    between atoms: C_28  and  C_29
REMARK                            x       y       z     vdW  Elec       q    Type
REMARK                         _______ _______ _______ _____ _____    ______ ____
ROOT
ATOM      1  C   UNL     1      -0.160   1.420   0.009  0.00  0.00    +0.060 A 
ATOM      2  C   UNL     1      -0.605   2.389  -0.882  0.00  0.00    +0.026 A 
ATOM      3  C   UNL     1       0.251   3.347  -1.649  0.00  0.00    +0.064 C 
ATOM      4  N   UNL     1      -1.950   2.381  -0.946  0.00  0.00    -0.358 N 
ATOM      5  C   UNL     1      -2.380   1.405  -0.125  0.00  0.00    +0.044 A 
ATOM      6  C   UNL     1      -1.300   0.804   0.513  0.00  0.00    -0.013 A 
ATOM      7  C   UNL     1      -1.364  -0.202   1.626  0.00  0.00    +0.047 C 
ATOM      8  H   UNL     1      -2.550   3.015  -1.521  0.00  0.00    +0.166 HD
ENDROOT
BRANCH   5   9
ATOM      9  C   UNL     1      -3.806   1.145   0.128  0.00  0.00    +0.039 C 
ATOM     10  C   UNL     1      -4.378  -0.056  -0.031  0.00  0.00    +0.048 C 
ATOM     11  C   UNL     1      -3.805  -1.299  -0.574  0.00  0.00    +0.249 C 
ATOM     12  O   UNL     1      -2.643  -1.435  -1.041  0.00  0.00    -0.270 OA
ATOM     13  N   UNL     1      -4.778  -2.340  -0.593  0.00  0.00    -0.281 N 
ATOM     14  C   UNL     1      -5.965  -1.734  -0.093  0.00  0.00    +0.042 A 
ATOM     15  C   UNL     1      -5.775  -0.405   0.239  0.00  0.00    +0.011 A 
ATOM     16  C   UNL     1      -6.822   0.372   0.742  0.00  0.00    +0.048 A 
ATOM     17  C   UNL     1      -8.082  -0.230   0.900  0.00  0.00    +0.124 A 
ATOM     18  F   UNL     1      -9.120   0.497   1.382  0.00  0.00    -0.205 F 
ATOM     19  C   UNL     1      -8.274  -1.584   0.557  0.00  0.00    +0.040 A 
ATOM     20  C   UNL     1      -7.207  -2.349   0.054  0.00  0.00    +0.027 A 
ATOM     21  H   UNL     1      -4.662  -3.314  -0.951  0.00  0.00    +0.155 HD
ENDBRANCH   5   9
BRANCH   1  23
ATOM     22  N   UNL     1       1.690  -0.187   0.638  0.00  0.00    -0.310 N 
ATOM     23  C   UNL     1       1.244   1.153   0.382  0.00  0.00    +0.246 C 
ATOM     24  O   UNL     1       2.058   2.113   0.453  0.00  0.00    -0.270 OA
ATOM     25  H   UNL     1       1.034  -0.985   0.490  0.00  0.00    +0.149 HD
BRANCH  22  26
ATOM     26  C   UNL     1       3.055  -0.491   1.064  0.00  0.00    +0.120 C 
BRANCH  26  27
ATOM     27  C   UNL     1       4.016  -0.422  -0.142  0.00  0.00    +0.103 C 
BRANCH  27  28
ATOM     28  N   UNL     1       5.460  -0.524   0.202  0.00  0.00    -0.301 NA
BRANCH  28  30
ATOM     29  C   UNL     1       5.495  -3.020   0.298  0.00  0.00    +0.020 C 
ATOM     30  C   UNL     1       5.808  -1.709   1.021  0.00  0.00    +0.081 C 
ENDBRANCH  28  30
BRANCH  28  31
ATOM     31  C   UNL     1       6.006   0.720   0.793  0.00  0.00    +0.081 C 
ATOM     32  C   UNL     1       6.231   1.791  -0.277  0.00  0.00    +0.020 C 
ENDBRANCH  28  31
ENDBRANCH  27  28
ENDBRANCH  26  27
ENDBRANCH  22  26
ENDBRANCH   1  23
TORSDOF 7
