REMARK  Name = 
REMARK  1 active torsions:
REMARK  status: ('A' for Active; 'I' for Inactive)
REMARK    1  A    between atoms: N_1  and  C_2
REMARK                            x       y       z     vdW  Elec       q    Type
REMARK                         _______ _______ _______ _____ _____    ______ ____
ROOT
ATOM      1  C   UNL     1       0.446   1.150  -0.020  0.00  0.00    +0.039 A 
ATOM      2  C   UNL     1      -0.776   0.424  -0.037  0.00  0.00    -0.005 A 
ATOM      3  C   UNL     1      -2.103   1.146  -0.214  0.00  0.00    +0.039 C 
ATOM      4  C   UNL     1      -3.332   0.257   0.011  0.00  0.00    +0.005 C 
ATOM      5  C   UNL     1      -3.155  -1.097  -0.668  0.00  0.00    +0.006 C 
ATOM      6  C   UNL     1      -1.975  -1.835  -0.040  0.00  0.00    +0.056 C 
ATOM      7  C   UNL     1      -0.729  -0.991  -0.003  0.00  0.00    +0.047 A 
ATOM      8  N   UNL     1       0.461  -1.627   0.133  0.00  0.00    -0.251 NA
ATOM      9  C   UNL     1       1.639  -0.965   0.214  0.00  0.00    +0.073 A 
ATOM     10  C   UNL     1       2.824  -1.694   0.367  0.00  0.00    +0.028 A 
ATOM     11  C   UNL     1       4.047  -1.032   0.474  0.00  0.00    +0.002 A 
ATOM     12  C   UNL     1       4.091   0.362   0.437  0.00  0.00    +0.001 A 
ATOM     13  C   UNL     1       2.914   1.101   0.282  0.00  0.00    +0.012 A 
ATOM     14  C   UNL     1       1.668   0.448   0.150  0.00  0.00    +0.021 A 
ENDROOT
BRANCH   1  15
ATOM     15  N   UNL     1       0.443   2.576  -0.226  0.00  0.00    -0.357 N 
ATOM     16  H   UNL     1      -0.422   3.152  -0.151  0.00  0.00    +0.142 HD
ATOM     17  H   UNL     1       1.277   3.081  -0.594  0.00  0.00    +0.142 HD
ENDBRANCH   1  15
TORSDOF 1
