REMARK  Name = 
REMARK  18 active torsions:
REMARK  status: ('A' for Active; 'I' for Inactive)
REMARK    1  A    between atoms: C_1  and  O_2
REMARK    2  A    between atoms: O_2  and  C_3
REMARK    3  A    between atoms: C_5  and  C_10
REMARK    4  A    between atoms: C_8  and  O_9
REMARK    5  A    between atoms: C_11  and  C_12
REMARK    6  A    between atoms: C_11  and  C_13
REMARK    7  A    between atoms: C_27  and  O_28
REMARK    8  A    between atoms: C_31  and  O_35
REMARK    9  A    between atoms: C_33  and  C_34
REMARK   10  A    between atoms: O_35  and  C_36
REMARK   11  A    between atoms: C_37  and  O_56
REMARK   12  A    between atoms: C_39  and  C_40
REMARK   13  A    between atoms: C_42  and  C_43
REMARK   14  A    between atoms: C_45  and  C_46
REMARK   15  A    between atoms: C_46  and  C_47
REMARK   16  A    between atoms: C_52  and  O_53
REMARK   17  A    between atoms: C_54  and  C_55
REMARK   18  A    between atoms: O_56  and  C_57
REMARK                            x       y       z     vdW  Elec       q    Type
REMARK                         _______ _______ _______ _____ _____    ______ ____
ROOT
ATOM      1  C   UNL     1       2.612   0.298   0.395  0.00  0.00    +0.207 C 
ATOM      2  O   UNL     1       2.381  -0.959   1.059  0.00  0.00    -0.455 OA
ATOM      3  C   UNL     1       1.352  -1.852   0.708  0.00  0.00    +0.328 C 
ATOM      4  O   UNL     1       0.705  -1.692  -0.378  0.00  0.00    -0.249 OA
ATOM      5  C   UNL     1       1.102  -3.068   1.560  0.00  0.00    +0.185 C 
ATOM      6  C   UNL     1       1.664  -4.316   0.852  0.00  0.00    +0.034 C 
ATOM      7  C   UNL     1       1.419  -5.578   1.695  0.00  0.00    +0.004 C 
ATOM      8  C   UNL     1      -0.065  -5.732   2.051  0.00  0.00    +0.019 C 
ATOM      9  C   UNL     1      -0.586  -4.469   2.750  0.00  0.00    +0.109 C 
ATOM     10  N   UNL     1      -0.321  -3.302   1.906  0.00  0.00    -0.282 N 
ATOM     11  C   UNL     1      -1.408  -2.533   1.356  0.00  0.00    +0.288 C 
ATOM     12  O   UNL     1      -1.448  -1.289   1.558  0.00  0.00    -0.267 OA
ATOM     13  C   UNL     1      -2.475  -3.175   0.549  0.00  0.00    +0.276 C 
ATOM     14  O   UNL     1      -2.728  -4.394   0.734  0.00  0.00    -0.281 OA
ATOM     15  C   UNL     1      -3.286  -2.372  -0.464  0.00  0.00    +0.240 C 
ATOM     16  O   UNL     1      -4.221  -1.611   0.301  0.00  0.00    -0.334 OA
ATOM     17  C   UNL     1      -5.193  -0.983  -0.531  0.00  0.00    +0.179 C 
ATOM     18  C   UNL     1      -6.200  -2.042  -1.037  0.00  0.00    +0.150 C 
ATOM     19  C   UNL     1      -5.526  -3.433  -1.127  0.00  0.00    +0.043 C 
ATOM     20  C   UNL     1      -4.033  -3.333  -1.497  0.00  0.00    +0.056 C 
ATOM     21  C   UNL     1      -3.853  -2.931  -2.971  0.00  0.00    +0.013 C 
ATOM     22  C   UNL     1      -5.871   0.172   0.251  0.00  0.00    +0.149 C 
ATOM     23  C   UNL     1      -4.823   1.281   0.528  0.00  0.00    +0.038 C 
ATOM     24  C   UNL     1      -5.237   2.391   1.536  0.00  0.00    -0.008 C 
ATOM     25  C   UNL     1      -5.114   1.912   2.997  0.00  0.00    +0.008 C 
ATOM     26  C   UNL     1      -4.442   3.720   1.313  0.00  0.00    +0.033 C 
ATOM     27  C   UNL     1      -2.951   3.548   1.043  0.00  0.00    -0.076 C 
ATOM     28  C   UNL     1      -2.110   2.849   2.077  0.00  0.00    +0.039 C 
ATOM     29  C   UNL     1      -2.427   4.054  -0.104  0.00  0.00    -0.017 C 
ATOM     30  C   UNL     1      -1.138   3.590  -0.775  0.00  0.00    +0.082 C 
ATOM     31  C   UNL     1       0.150   3.935  -0.051  0.00  0.00    +0.143 C 
ATOM     32  O   UNL     1       0.210   4.929   0.665  0.00  0.00    -0.297 OA
ATOM     33  C   UNL     1       1.427   3.206  -0.442  0.00  0.00    +0.106 C 
ATOM     34  C   UNL     1       2.405   2.910   0.746  0.00  0.00    +0.128 C 
ATOM     35  C   UNL     1       2.302   1.479   1.367  0.00  0.00    +0.060 C 
ATOM     36  C   UNL     1       0.954   1.281   2.063  0.00  0.00    +0.014 C 
ENDROOT
BRANCH   1  38
ATOM     37  C   UNL     1       5.075   0.037   0.716  0.00  0.00    -0.021 C 
ATOM     38  C   UNL     1       4.048   0.327  -0.128  0.00  0.00    -0.036 C 
ATOM     39  C   UNL     1       4.216   0.559  -1.617  0.00  0.00    +0.042 C 
BRANCH  37  42
ATOM     40  C   UNL     1       8.524  -0.841  -0.930  0.00  0.00    +0.147 C 
ATOM     41  C   UNL     1       7.010  -0.936  -0.660  0.00  0.00    +0.041 C 
ATOM     42  C   UNL     1       6.567   0.069   0.432  0.00  0.00    +0.014 C 
ATOM     43  C   UNL     1       7.063   1.515   0.191  0.00  0.00    +0.010 C 
ATOM     44  C   UNL     1       8.554   1.563  -0.192  0.00  0.00    +0.034 C 
ATOM     45  C   UNL     1       8.876   0.602  -1.353  0.00  0.00    +0.143 C 
BRANCH  40  47
ATOM     46  C   UNL     1      10.027  -2.465  -1.646  0.00  0.00    +0.194 C 
ATOM     47  O   UNL     1       8.863  -1.742  -1.974  0.00  0.00    -0.377 OA
ENDBRANCH  40  47
BRANCH  45  48
ATOM     48  O   UNL     1      10.245   0.715  -1.666  0.00  0.00    -0.389 OA
ATOM     49  H   UNL     1      10.336   0.387  -2.600  0.00  0.00    +0.210 HD
ENDBRANCH  45  48
ENDBRANCH  37  42
ENDBRANCH   1  38
BRANCH  15  50
ATOM     50  O   UNL     1      -2.419  -1.484  -1.136  0.00  0.00    -0.358 OA
ATOM     51  H   UNL     1      -1.697  -2.020  -1.558  0.00  0.00    +0.213 HD
ENDBRANCH  15  50
BRANCH  18  52
ATOM     52  O   UNL     1      -6.659  -1.656  -2.331  0.00  0.00    -0.377 OA
ATOM     53  C   UNL     1      -8.038  -1.933  -2.486  0.00  0.00    +0.194 C 
ENDBRANCH  18  52
BRANCH  34  54
ATOM     54  O   UNL     1       3.731   3.119   0.329  0.00  0.00    -0.391 OA
ATOM     55  H   UNL     1       3.849   4.101   0.212  0.00  0.00    +0.210 HD
ENDBRANCH  34  54
BRANCH  22  56
ATOM     56  O   UNL     1      -6.386  -0.343   1.473  0.00  0.00    -0.377 OA
ATOM     57  C   UNL     1      -7.777  -0.082   1.587  0.00  0.00    +0.194 C 
ENDBRANCH  22  56
BRANCH  30  58
ATOM     58  C   UNL     1      -1.070   4.148  -2.224  0.00  0.00    +0.041 C 
BRANCH  58  59
ATOM     59  C   UNL     1      -0.711   5.615  -2.284  0.00  0.00    -0.033 C 
ATOM     60  C   UNL     1      -1.627   6.583  -2.344  0.00  0.00    +0.004 C 
ENDBRANCH  58  59
ENDBRANCH  30  58
TORSDOF 10
