REMARK  Name = 
REMARK  2 active torsions:
REMARK  status: ('A' for Active; 'I' for Inactive)
REMARK    1  A    between atoms: C_12  and  C_21
REMARK    2  A    between atoms: N_17  and  C_18
REMARK                            x       y       z     vdW  Elec       q    Type
REMARK                         _______ _______ _______ _____ _____    ______ ____
ROOT
ATOM      1  C   UNL     1      -1.992  -1.105  -0.641  0.00  0.00    +0.167 C 
ATOM      2  C   UNL     1      -2.224   0.101   0.292  0.00  0.00    +0.069 C 
ATOM      3  C   UNL     1      -1.518   1.284  -0.274  0.00  0.00    -0.015 A 
ATOM      4  C   UNL     1      -0.384   1.192  -1.052  0.00  0.00    +0.046 A 
ATOM      5  N   UNL     1       0.084   2.420  -1.378  0.00  0.00    -0.356 N 
ATOM      6  C   UNL     1      -0.759   3.289  -0.786  0.00  0.00    +0.047 A 
ATOM      7  C   UNL     1      -0.687   4.681  -0.805  0.00  0.00    +0.026 A 
ATOM      8  C   UNL     1      -1.666   5.400  -0.094  0.00  0.00    +0.002 A 
ATOM      9  C   UNL     1      -2.680   4.720   0.618  0.00  0.00    +0.001 A 
ATOM     10  C   UNL     1      -2.728   3.313   0.624  0.00  0.00    +0.010 A 
ATOM     11  C   UNL     1      -1.748   2.630  -0.095  0.00  0.00    +0.003 A 
ATOM     12  C   UNL     1       0.268  -0.116  -1.401  0.00  0.00    +0.154 C 
ATOM     13  N   UNL     1      -0.548  -1.270  -0.939  0.00  0.00    -0.276 N 
ATOM     14  C   UNL     1      -0.014  -2.596  -1.075  0.00  0.00    +0.234 C 
ATOM     15  O   UNL     1       0.898  -2.836  -1.912  0.00  0.00    -0.274 OA
ATOM     16  C   UNL     1      -0.464  -3.674  -0.149  0.00  0.00    +0.203 C 
ATOM     17  N   UNL     1      -1.891  -3.565   0.159  0.00  0.00    -0.294 N 
ATOM     18  C   UNL     1      -2.555  -4.696   0.811  0.00  0.00    +0.132 C 
ATOM     19  C   UNL     1      -2.629  -2.344  -0.050  0.00  0.00    +0.237 C 
ATOM     20  O   UNL     1      -3.860  -2.308   0.228  0.00  0.00    -0.274 OA
ATOM     21  H   UNL     1       0.934   2.644  -1.941  0.00  0.00    +0.166 HD
ENDROOT
BRANCH  12  22
ATOM     22  C   UNL     1       1.643  -0.146  -0.767  0.00  0.00    -0.018 A 
ATOM     23  C   UNL     1       1.779  -0.273   0.636  0.00  0.00    +0.055 A 
ATOM     24  C   UNL     1       3.063  -0.278   1.171  0.00  0.00    +0.167 A 
ATOM     25  C   UNL     1       4.168  -0.161   0.393  0.00  0.00    +0.166 A 
ATOM     26  O   UNL     1       5.297  -0.197   1.187  0.00  0.00    -0.453 OA
ATOM     27  C   UNL     1       4.875  -0.346   2.550  0.00  0.00    +0.466 C 
ATOM     28  O   UNL     1       3.443  -0.393   2.495  0.00  0.00    -0.453 OA
ATOM     29  C   UNL     1       4.084  -0.026  -0.989  0.00  0.00    +0.050 A 
ATOM     30  C   UNL     1       2.804  -0.016  -1.573  0.00  0.00    +0.009 A 
ENDBRANCH  12  22
TORSDOF 1
