REMARK  Name = 
REMARK  17 active torsions:
REMARK  status: ('A' for Active; 'I' for Inactive)
REMARK    1  A    between atoms: C_1  and  C_2
REMARK    2  A    between atoms: C_2  and  C_3
REMARK    3  A    between atoms: C_2  and  O_4
REMARK    4  A    between atoms: O_4  and  C_5
REMARK    5  A    between atoms: C_5  and  C_7
REMARK    6  A    between atoms: C_7  and  C_8
REMARK    7  A    between atoms: C_8  and  C_9
REMARK    8  A    between atoms: C_9  and  C_10
REMARK    9  A    between atoms: C_11  and  C_12
REMARK   10  A    between atoms: C_12  and  C_13
REMARK   11  A    between atoms: C_14  and  O_15
REMARK   12  A    between atoms: C_17  and  O_18
REMARK   13  A    between atoms: C_19  and  C_20
REMARK   14  A    between atoms: C_21  and  C_22
REMARK   15  A    between atoms: C_22  and  C_25
REMARK   16  A    between atoms: C_25  and  O_26
REMARK   17  A    between atoms: O_26  and  C_27
REMARK                            x       y       z     vdW  Elec       q    Type
REMARK                         _______ _______ _______ _____ _____    ______ ____
ROOT
ATOM      1  C   UNL     1      -0.139   1.988  -0.616  0.00  0.00    +0.031 C 
ATOM      2  C   UNL     1      -0.640   3.291  -1.268  0.00  0.00    +0.121 C 
ATOM      3  C   UNL     1      -1.119   2.900  -2.659  0.00  0.00    +0.063 C 
ATOM      4  C   UNL     1      -1.678   1.490  -2.503  0.00  0.00    +0.124 C 
ATOM      5  C   UNL     1      -0.866   0.840  -1.365  0.00  0.00    +0.046 C 
ENDROOT
BRANCH   2   6
ATOM      6  O   UNL     1       0.348   4.288  -1.329  0.00  0.00    -0.391 OA
ATOM      7  H   UNL     1      -0.122   5.144  -1.498  0.00  0.00    +0.210 HD
ENDBRANCH   2   6
BRANCH   4   8
ATOM      8  O   UNL     1      -1.536   0.760  -3.694  0.00  0.00    -0.391 OA
ATOM      9  H   UNL     1      -2.189   1.139  -4.340  0.00  0.00    +0.210 HD
ENDBRANCH   4   8
BRANCH   5  10
ATOM     10  C   UNL     1      -1.730  -0.006  -0.449  0.00  0.00    -0.019 C 
ATOM     11  C   UNL     1      -2.762   0.501   0.249  0.00  0.00    +0.047 C 
BRANCH  11  12
ATOM     12  C   UNL     1      -3.623  -0.358   1.138  0.00  0.00    +0.300 C 
ATOM     13  F   UNL     1      -4.506   0.461   1.820  0.00  0.00    -0.197 F 
ATOM     14  F   UNL     1      -2.826  -1.005   2.067  0.00  0.00    -0.197 F 
BRANCH  12  15
ATOM     15  C   UNL     1      -4.402  -1.395   0.314  0.00  0.00    +0.308 C 
BRANCH  15  16
ATOM     16  O   UNL     1      -5.314  -2.126   1.136  0.00  0.00    -0.486 OA
BRANCH  16  17
ATOM     17  C   UNL     1      -6.612  -1.719   1.490  0.00  0.00    +0.121 A 
ATOM     18  C   UNL     1      -7.349  -2.544   2.352  0.00  0.00    +0.045 A 
ATOM     19  C   UNL     1      -8.648  -2.194   2.734  0.00  0.00    +0.004 A 
ATOM     20  C   UNL     1      -9.221  -1.010   2.263  0.00  0.00    +0.000 A 
ATOM     21  C   UNL     1      -8.499  -0.180   1.402  0.00  0.00    +0.004 A 
ATOM     22  C   UNL     1      -7.201  -0.529   1.012  0.00  0.00    +0.045 A 
ENDBRANCH  16  17
ENDBRANCH  15  16
ENDBRANCH  12  15
ENDBRANCH  11  12
ENDBRANCH   5  10
BRANCH   1  23
ATOM     23  C   UNL     1       1.405   1.815  -0.603  0.00  0.00    +0.033 C 
BRANCH  23  25
ATOM     24  C   UNL     1       2.566   0.679  -2.571  0.00  0.00    -0.031 C 
ATOM     25  C   UNL     1       2.025   1.767  -1.986  0.00  0.00    -0.031 C 
BRANCH  24  26
ATOM     26  C   UNL     1       2.712  -0.686  -1.938  0.00  0.00    +0.027 C 
BRANCH  26  27
ATOM     27  C   UNL     1       4.141  -0.927  -1.435  0.00  0.00    +0.015 C 
BRANCH  27  28
ATOM     28  C   UNL     1       4.508  -0.033  -0.243  0.00  0.00    +0.121 C 
BRANCH  28  29
ATOM     29  C   UNL     1       5.899  -0.326   0.228  0.00  0.00    +0.307 C 
ATOM     30  O   UNL     1       6.881  -0.053  -0.517  0.00  0.00    -0.251 OA
BRANCH  29  31
ATOM     31  O   UNL     1       6.094  -0.896   1.492  0.00  0.00    -0.462 OA
BRANCH  31  33
ATOM     32  C   UNL     1       7.800  -2.612   1.340  0.00  0.00    +0.052 C 
ATOM     33  C   UNL     1       7.372  -1.292   1.987  0.00  0.00    +0.170 C 
ATOM     34  C   UNL     1       7.293  -1.440   3.506  0.00  0.00    +0.052 C 
ENDBRANCH  31  33
ENDBRANCH  29  31
ENDBRANCH  28  29
ENDBRANCH  27  28
ENDBRANCH  26  27
ENDBRANCH  24  26
ENDBRANCH  23  25
ENDBRANCH   1  23
TORSDOF 15
