REMARK  Name = 
REMARK  6 active torsions:
REMARK  status: ('A' for Active; 'I' for Inactive)
REMARK    1  A    between atoms: C_1  and  C_2
REMARK    2  A    between atoms: C_2  and  C_3
REMARK    3  A    between atoms: C_3  and  C_4
REMARK    4  A    between atoms: C_3  and  C_5
REMARK    5  A    between atoms: C_5  and  C_6
REMARK    6  A    between atoms: C_6  and  C_7
REMARK                            x       y       z     vdW  Elec       q    Type
REMARK                         _______ _______ _______ _____ _____    ______ ____
ROOT
ATOM      1  C   UNL     1      -0.270  -0.600  -0.011  0.00  0.00    +0.129 C 
ATOM      2  C   UNL     1      -0.901  -0.669   1.389  0.00  0.00    +0.236 C 
ATOM      3  O   UNL     1      -1.506   0.316   1.890  0.00  0.00    -0.274 OA
ATOM      4  N   UNL     1      -0.809  -1.873   2.155  0.00  0.00    -0.239 N 
ATOM      5  C   UNL     1      -0.695  -3.119   1.478  0.00  0.00    +0.312 C 
ATOM      6  O   UNL     1      -0.630  -4.193   2.132  0.00  0.00    -0.252 OA
ATOM      7  N   UNL     1      -0.704  -3.144   0.053  0.00  0.00    -0.239 N 
ATOM      8  C   UNL     1      -0.659  -1.923  -0.700  0.00  0.00    +0.236 C 
ATOM      9  O   UNL     1      -0.820  -1.998  -1.946  0.00  0.00    -0.274 OA
ATOM     10  H   UNL     1      -0.978  -1.852   3.186  0.00  0.00    +0.159 HD
ATOM     11  H   UNL     1      -0.766  -4.060  -0.446  0.00  0.00    +0.159 HD
ENDROOT
BRANCH   1  12
ATOM     12  C   UNL     1      -0.801   0.686  -0.805  0.00  0.00    +0.010 C 
ATOM     13  C   UNL     1      -0.509   0.681  -2.331  0.00  0.00    +0.009 C 
BRANCH  12  15
ATOM     14  C   UNL     1      -1.265   3.200  -0.490  0.00  0.00    +0.004 C 
ATOM     15  C   UNL     1      -0.301   2.041  -0.212  0.00  0.00    +0.001 C 
ENDBRANCH  12  15
ENDBRANCH   1  12
BRANCH   1  16
ATOM     16  C   UNL     1       1.295  -0.616   0.106  0.00  0.00    +0.052 C 
BRANCH  16  17
ATOM     17  C   UNL     1       1.896   0.264   1.183  0.00  0.00    -0.033 C 
ATOM     18  C   UNL     1       3.211   0.491   1.242  0.00  0.00    +0.004 C 
ENDBRANCH  16  17
ENDBRANCH   1  16
TORSDOF 4
