REMARK  Name = 
REMARK  8 active torsions:
REMARK  status: ('A' for Active; 'I' for Inactive)
REMARK    1  A    between atoms: C_1  and  C_2
REMARK    2  A    between atoms: C_2  and  C_3
REMARK    3  A    between atoms: C_6  and  C_7
REMARK    4  A    between atoms: C_6  and  C_8
REMARK    5  A    between atoms: C_13  and  N_14
REMARK    6  A    between atoms: C_15  and  C_17
REMARK    7  A    between atoms: C_20  and  C_23
REMARK    8  A    between atoms: C_23  and  O_24
REMARK                            x       y       z     vdW  Elec       q    Type
REMARK                         _______ _______ _______ _____ _____    ______ ____
ROOT
ATOM      1  C   UNL     1      -4.213  -0.281   2.578  0.00  0.00    +0.016 C 
ATOM      2  C   UNL     1      -3.865  -1.047   1.282  0.00  0.00    -0.010 C 
ATOM      3  C   UNL     1      -4.205  -2.545   1.485  0.00  0.00    +0.016 C 
ATOM      4  C   UNL     1      -4.747  -0.542   0.114  0.00  0.00    +0.012 C 
ATOM      5  C   UNL     1      -4.284   0.808  -0.419  0.00  0.00    +0.012 C 
ATOM      6  C   UNL     1      -2.849   0.749  -1.000  0.00  0.00    -0.009 C 
ATOM      7  C   UNL     1      -2.378   2.214  -1.179  0.00  0.00    +0.016 C 
ATOM      8  C   UNL     1      -2.865   0.061  -2.384  0.00  0.00    +0.016 C 
ATOM      9  C   UNL     1      -1.897  -0.019  -0.070  0.00  0.00    -0.036 A 
ATOM     10  C   UNL     1      -2.369  -0.863   0.981  0.00  0.00    -0.038 A 
ATOM     11  C   UNL     1      -1.421  -1.495   1.816  0.00  0.00    +0.006 A 
ATOM     12  C   UNL     1      -0.055  -1.373   1.582  0.00  0.00    +0.023 A 
ATOM     13  C   UNL     1       0.415  -0.600   0.523  0.00  0.00    +0.034 A 
ATOM     14  C   UNL     1      -0.506   0.047  -0.311  0.00  0.00    +0.027 A 
ENDROOT
BRANCH  13  15
ATOM     15  N   UNL     1       1.830  -0.529   0.276  0.00  0.00    -0.281 N 
ATOM     16  C   UNL     1       2.507   0.667  -0.154  0.00  0.00    +0.248 C 
ATOM     17  O   UNL     1       1.872   1.755  -0.235  0.00  0.00    -0.270 OA
ATOM     18  H   UNL     1       2.386  -1.389   0.473  0.00  0.00    +0.155 HD
BRANCH  16  19
ATOM     19  C   UNL     1       3.949   0.653  -0.500  0.00  0.00    +0.037 A 
ATOM     20  C   UNL     1       4.447   1.566  -1.445  0.00  0.00    +0.014 A 
ATOM     21  C   UNL     1       5.803   1.573  -1.784  0.00  0.00    +0.016 A 
ATOM     22  C   UNL     1       6.694   0.672  -1.177  0.00  0.00    +0.059 A 
ATOM     23  C   UNL     1       6.201  -0.231  -0.222  0.00  0.00    +0.016 A 
ATOM     24  C   UNL     1       4.844  -0.239   0.117  0.00  0.00    +0.014 A 
BRANCH  22  25
ATOM     25  C   UNL     1       8.130   0.675  -1.532  0.00  0.00    +0.337 C 
ATOM     26  O   UNL     1       8.575   1.487  -2.388  0.00  0.00    -0.245 OA
BRANCH  25  27
ATOM     27  O   UNL     1       9.005  -0.222  -0.924  0.00  0.00    -0.477 OA
ATOM     28  H   UNL     1       9.990  -0.228  -1.160  0.00  0.00    +0.295 HD
ENDBRANCH  25  27
ENDBRANCH  22  25
ENDBRANCH  16  19
ENDBRANCH  13  15
TORSDOF 4
