REMARK  Name = 
REMARK  11 active torsions:
REMARK  status: ('A' for Active; 'I' for Inactive)
REMARK    1  A    between atoms: C_1  and  C_2
REMARK    2  A    between atoms: C_2  and  C_3
REMARK    3  A    between atoms: C_3  and  C_23
REMARK    4  A    between atoms: C_4  and  C_5
REMARK    5  A    between atoms: C_4  and  C_11
REMARK    6  A    between atoms: C_14  and  O_15
REMARK    7  A    between atoms: O_15  and  C_16
REMARK    8  A    between atoms: C_16  and  C_17
REMARK    9  A    between atoms: C_17  and  N_18
REMARK   10  A    between atoms: N_18  and  C_19
REMARK   11  A    between atoms: N_18  and  C_20
REMARK                            x       y       z     vdW  Elec       q    Type
REMARK                         _______ _______ _______ _____ _____    ______ ____
ROOT
ATOM      1  C   UNL     1      -3.050   0.440   0.803  0.00  0.00    -0.032 C 
ATOM      2  C   UNL     1      -1.973  -0.371   0.598  0.00  0.00    -0.007 C 
ENDROOT
BRANCH   2   3
ATOM      3  C   UNL     1      -2.006  -1.816   0.925  0.00  0.00    -0.017 A 
ATOM      4  C   UNL     1      -1.858  -2.769  -0.095  0.00  0.00    +0.008 A 
ATOM      5  C   UNL     1      -1.850  -4.133   0.212  0.00  0.00    +0.001 A 
ATOM      6  C   UNL     1      -1.972  -4.553   1.540  0.00  0.00    +0.000 A 
ATOM      7  C   UNL     1      -2.094  -3.609   2.563  0.00  0.00    +0.001 A 
ATOM      8  C   UNL     1      -2.103  -2.244   2.260  0.00  0.00    +0.008 A 
ENDBRANCH   2   3
BRANCH   2   9
ATOM      9  C   UNL     1      -0.712   0.140   0.001  0.00  0.00    -0.017 A 
ATOM     10  C   UNL     1      -0.724   0.820  -1.228  0.00  0.00    +0.012 A 
ATOM     11  C   UNL     1       0.467   1.289  -1.786  0.00  0.00    +0.046 A 
ATOM     12  C   UNL     1       1.690   1.077  -1.139  0.00  0.00    +0.121 A 
ATOM     13  C   UNL     1       1.705   0.385   0.087  0.00  0.00    +0.046 A 
ATOM     14  C   UNL     1       0.513  -0.085   0.647  0.00  0.00    +0.012 A 
BRANCH  12  15
ATOM     15  O   UNL     1       2.855   1.573  -1.748  0.00  0.00    -0.491 OA
BRANCH  15  16
ATOM     16  C   UNL     1       4.187   1.363  -1.279  0.00  0.00    +0.244 C 
BRANCH  16  17
ATOM     17  C   UNL     1       4.652  -0.062  -1.600  0.00  0.00    +0.124 C 
BRANCH  17  18
ATOM     18  N   UNL     1       6.063  -0.253  -1.200  0.00  0.00    -0.305 NA
ATOM     19  C   UNL     1       6.163  -0.598   0.230  0.00  0.00    +0.104 C 
ATOM     20  C   UNL     1       6.680  -1.322  -2.002  0.00  0.00    +0.104 C 
ENDBRANCH  17  18
ENDBRANCH  16  17
ENDBRANCH  15  16
ENDBRANCH  12  15
ENDBRANCH   2   9
BRANCH   1  21
ATOM     21  C   UNL     1      -2.932   1.917   0.664  0.00  0.00    -0.021 A 
ATOM     22  C   UNL     1      -3.796   2.626  -0.189  0.00  0.00    +0.008 A 
ATOM     23  C   UNL     1      -3.680   4.014  -0.315  0.00  0.00    +0.001 A 
ATOM     24  C   UNL     1      -2.709   4.706   0.414  0.00  0.00    +0.000 A 
ATOM     25  C   UNL     1      -1.854   4.011   1.274  0.00  0.00    +0.001 A 
ATOM     26  C   UNL     1      -1.967   2.624   1.403  0.00  0.00    +0.008 A 
ENDBRANCH   1  21
BRANCH   1  28
ATOM     27  C   UNL     1      -5.090  -0.838   0.037  0.00  0.00    +0.009 C 
ATOM     28  C   UNL     1      -4.410  -0.111   1.197  0.00  0.00    +0.033 C 
ENDBRANCH   1  28
TORSDOF 8
