REMARK  Name = 
REMARK  15 active torsions:
REMARK  status: ('A' for Active; 'I' for Inactive)
REMARK    1  A    between atoms: C_1  and  C_2
REMARK    2  A    between atoms: C_2  and  O_3
REMARK    3  A    between atoms: O_3  and  C_4
REMARK    4  A    between atoms: C_9  and  O_10
REMARK    5  A    between atoms: O_10  and  C_11
REMARK    6  A    between atoms: C_11  and  C_12
REMARK    7  A    between atoms: C_12  and  N_13
REMARK    8  A    between atoms: N_13  and  C_14
REMARK    9  A    between atoms: C_14  and  C_15
REMARK   10  A    between atoms: C_14  and  C_16
REMARK   11  A    between atoms: C_16  and  C_17
REMARK   12  A    between atoms: C_19  and  S_25
REMARK   13  A    between atoms: C_20  and  O_21
REMARK   14  A    between atoms: O_21  and  C_22
REMARK   15  A    between atoms: S_25  and  N_26
REMARK                            x       y       z     vdW  Elec       q    Type
REMARK                         _______ _______ _______ _____ _____    ______ ____
ROOT
ATOM      1  C   UNL     1       1.095   1.582   0.694  0.00  0.00    +0.055 C 
ATOM      2  C   UNL     1       0.806   2.529  -0.482  0.00  0.00    +0.024 C 
ENDROOT
BRANCH   1   3
ATOM      3  N   UNL     1       0.041   1.679   1.725  0.00  0.00    -0.310 NA
ATOM      4  H   UNL     1       0.384   1.200   2.591  0.00  0.00    +0.122 HD
BRANCH   3   5
ATOM      5  C   UNL     1      -1.243   1.069   1.343  0.00  0.00    +0.122 C 
BRANCH   5   6
ATOM      6  C   UNL     1      -2.325   1.480   2.342  0.00  0.00    +0.244 C 
BRANCH   6   7
ATOM      7  O   UNL     1      -3.588   0.925   1.975  0.00  0.00    -0.487 OA
BRANCH   7  13
ATOM      8  C   UNL     1      -5.207  -0.823   1.605  0.00  0.00    +0.162 A 
ATOM      9  C   UNL     1      -5.624  -2.161   1.751  0.00  0.00    +0.049 A 
ATOM     10  C   UNL     1      -4.818  -3.081   2.423  0.00  0.00    +0.004 A 
ATOM     11  C   UNL     1      -3.593  -2.680   2.956  0.00  0.00    +0.004 A 
ATOM     12  C   UNL     1      -3.169  -1.356   2.819  0.00  0.00    +0.049 A 
ATOM     13  C   UNL     1      -3.972  -0.418   2.139  0.00  0.00    +0.162 A 
BRANCH   8  14
ATOM     14  O   UNL     1      -5.989   0.133   0.937  0.00  0.00    -0.489 OA
BRANCH  14  16
ATOM     15  C   UNL     1      -7.801   1.141  -0.282  0.00  0.00    +0.048 C 
ATOM     16  C   UNL     1      -7.259  -0.132   0.346  0.00  0.00    +0.226 C 
ENDBRANCH  14  16
ENDBRANCH   8  14
ENDBRANCH   7  13
ENDBRANCH   6   7
ENDBRANCH   5   6
ENDBRANCH   3   5
ENDBRANCH   1   3
BRANCH   1  17
ATOM     17  C   UNL     1       1.344   0.126   0.229  0.00  0.00    +0.053 C 
BRANCH  17  18
ATOM     18  C   UNL     1       2.636  -0.003  -0.539  0.00  0.00    -0.044 A 
ATOM     19  C   UNL     1       3.857  -0.092   0.145  0.00  0.00    +0.036 A 
ATOM     20  C   UNL     1       5.067  -0.182  -0.559  0.00  0.00    +0.147 A 
ATOM     21  C   UNL     1       5.059  -0.189  -1.967  0.00  0.00    +0.146 A 
ATOM     22  C   UNL     1       3.831  -0.091  -2.649  0.00  0.00    +0.048 A 
ATOM     23  C   UNL     1       2.633   0.005  -1.940  0.00  0.00    +0.007 A 
BRANCH  20  24
ATOM     24  S   UNL     1       6.589  -0.304   0.327  0.00  0.00    +0.059 S 
ATOM     25  O   UNL     1       7.583   0.672  -0.238  0.00  0.00    -0.153 OA
ATOM     26  O   UNL     1       6.371   0.019   1.779  0.00  0.00    -0.153 OA
BRANCH  24  27
ATOM     27  N   UNL     1       7.207  -1.913   0.193  0.00  0.00    -0.203 NA
ATOM     28  H   UNL     1       8.120  -1.933   0.701  0.00  0.00    +0.144 HD
ATOM     29  H   UNL     1       7.421  -2.078  -0.816  0.00  0.00    +0.144 HD
ENDBRANCH  24  27
ENDBRANCH  20  24
BRANCH  21  30
ATOM     30  O   UNL     1       6.280  -0.293  -2.654  0.00  0.00    -0.493 OA
ATOM     31  C   UNL     1       6.411  -0.316  -4.072  0.00  0.00    +0.277 C 
ENDBRANCH  21  30
ENDBRANCH  17  18
ENDBRANCH   1  17
TORSDOF 12
