REMARK  Name = 
REMARK  10 active torsions:
REMARK  status: ('A' for Active; 'I' for Inactive)
REMARK    1  A    between atoms: C_1  and  C_2
REMARK    2  A    between atoms: C_2  and  C_3
REMARK    3  A    between atoms: C_3  and  C_4
REMARK    4  A    between atoms: C_3  and  C_10
REMARK    5  A    between atoms: C_4  and  C_5
REMARK    6  A    between atoms: C_4  and  C_6
REMARK    7  A    between atoms: C_6  and  N_7
REMARK    8  A    between atoms: N_7  and  C_8
REMARK    9  A    between atoms: N_7  and  C_9
REMARK   10  A    between atoms: C_12  and  O_13
REMARK                            x       y       z     vdW  Elec       q    Type
REMARK                         _______ _______ _______ _____ _____    ______ ____
ROOT
ATOM      1  C   UNL     1      -0.087  -0.739  -1.009  0.00  0.00    +0.023 C 
ENDROOT
BRANCH   1   2
ATOM      2  C   UNL     1      -1.405  -0.510  -0.273  0.00  0.00    -0.041 A 
ATOM      3  C   UNL     1      -2.497   0.047  -0.966  0.00  0.00    +0.049 A 
ATOM      4  C   UNL     1      -3.715   0.281  -0.312  0.00  0.00    +0.117 A 
ATOM      5  C   UNL     1      -3.850  -0.040   1.041  0.00  0.00    +0.045 A 
ATOM      6  C   UNL     1      -2.775  -0.587   1.742  0.00  0.00    +0.004 A 
ATOM      7  C   UNL     1      -1.559  -0.821   1.093  0.00  0.00    +0.004 A 
BRANCH   4   8
ATOM      8  O   UNL     1      -4.795   0.831  -0.999  0.00  0.00    -0.507 OA
ATOM      9  H   UNL     1      -4.729   1.075  -1.980  0.00  0.00    +0.292 HD
ENDBRANCH   4   8
ENDBRANCH   1   2
BRANCH   1  11
ATOM     10  C   UNL     1      -0.403  -3.268  -1.230  0.00  0.00    +0.004 C 
ATOM     11  C   UNL     1       0.518  -2.143  -0.752  0.00  0.00    +0.005 C 
ENDBRANCH   1  11
BRANCH   1  12
ATOM     12  C   UNL     1       0.951   0.404  -0.775  0.00  0.00    +0.007 C 
ATOM     13  C   UNL     1       0.448   1.734  -1.366  0.00  0.00    +0.009 C 
BRANCH  12  14
ATOM     14  C   UNL     1       1.353   0.594   0.709  0.00  0.00    +0.087 C 
BRANCH  14  15
ATOM     15  N   UNL     1       2.503   1.520   0.828  0.00  0.00    -0.308 NA
ATOM     16  C   UNL     1       3.781   0.794   0.725  0.00  0.00    +0.104 C 
ATOM     17  C   UNL     1       2.453   2.244   2.109  0.00  0.00    +0.104 C 
ENDBRANCH  14  15
ENDBRANCH  12  14
ENDBRANCH   1  12
TORSDOF 6
