REMARK  Name = 
REMARK  6 active torsions:
REMARK  status: ('A' for Active; 'I' for Inactive)
REMARK    1  A    between atoms: C_1  and  C_2
REMARK    2  A    between atoms: C_4  and  C_5
REMARK    3  A    between atoms: N_11  and  C_12
REMARK    4  A    between atoms: C_12  and  C_13
REMARK    5  A    between atoms: C_16  and  C_19
REMARK    6  A    between atoms: C_24  and  C_25
REMARK                            x       y       z     vdW  Elec       q    Type
REMARK                         _______ _______ _______ _____ _____    ______ ____
ROOT
ATOM      1  C   UNL     1       0.161   1.548   0.254  0.00  0.00    -0.030 A 
ATOM      2  C   UNL     1       0.327   0.877   1.477  0.00  0.00    +0.006 A 
ATOM      3  C   UNL     1       1.356  -0.055   1.637  0.00  0.00    +0.009 A 
ATOM      4  C   UNL     1       2.236  -0.325   0.580  0.00  0.00    -0.017 A 
ATOM      5  C   UNL     1       2.061   0.331  -0.648  0.00  0.00    +0.009 A 
ATOM      6  C   UNL     1       1.032   1.263  -0.809  0.00  0.00    +0.006 A 
ENDROOT
BRANCH   4   7
ATOM      7  C   UNL     1       3.312  -1.328   0.743  0.00  0.00    -0.007 A 
ATOM      8  C   UNL     1       2.941  -2.656   1.019  0.00  0.00    +0.009 A 
ATOM      9  C   UNL     1       3.904  -3.662   1.098  0.00  0.00    +0.001 A 
ATOM     10  C   UNL     1       5.249  -3.357   0.900  0.00  0.00    +0.001 A 
ATOM     11  C   UNL     1       5.639  -2.043   0.639  0.00  0.00    +0.012 A 
ATOM     12  C   UNL     1       4.687  -1.008   0.573  0.00  0.00    +0.030 A 
BRANCH  12  13
ATOM     13  C   UNL     1       5.167   0.382   0.373  0.00  0.00    +0.205 A 
ATOM     14  N   UNL     1       6.363   0.699  -0.163  0.00  0.00    -0.133 NA
ATOM     15  N   UNL     1       6.400   2.018  -0.114  0.00  0.00    -0.176 N 
ATOM     16  N   UNL     1       5.296   2.498   0.432  0.00  0.00    -0.049 NA
ATOM     17  N   UNL     1       4.501   1.492   0.754  0.00  0.00    -0.108 NA
ATOM     18  H   UNL     1       7.195   2.602  -0.455  0.00  0.00    +0.214 HD
ENDBRANCH  12  13
ENDBRANCH   4   7
BRANCH   1  19
ATOM     19  C   UNL     1      -0.973   2.519   0.063  0.00  0.00    +0.150 C 
BRANCH  19  30
ATOM     20  C   UNL     1      -3.784  -0.088   3.441  0.00  0.00    +0.088 C 
ATOM     21  C   UNL     1      -3.755  -0.049   1.950  0.00  0.00    +0.128 A 
ATOM     22  N   UNL     1      -4.548  -0.883   1.232  0.00  0.00    -0.237 NA
ATOM     23  C   UNL     1      -4.566  -0.854  -0.127  0.00  0.00    +0.047 A 
ATOM     24  C   UNL     1      -5.448  -1.828  -0.851  0.00  0.00    +0.066 C 
ATOM     25  C   UNL     1      -3.765   0.086  -0.813  0.00  0.00    +0.014 A 
ATOM     26  C   UNL     1      -3.678   0.124  -2.324  0.00  0.00    +0.049 C 
ATOM     27  C   UNL     1      -3.380   1.534  -2.839  0.00  0.00    +0.101 C 
ATOM     28  C   UNL     1      -2.216   2.126  -2.107  0.00  0.00    +0.221 C 
ATOM     29  O   UNL     1      -1.413   2.877  -2.726  0.00  0.00    -0.275 OA
ATOM     30  N   UNL     1      -2.062   1.884  -0.694  0.00  0.00    -0.251 N 
ATOM     31  C   UNL     1      -2.938   0.935  -0.047  0.00  0.00    +0.135 A 
ATOM     32  N   UNL     1      -2.967   0.851   1.310  0.00  0.00    -0.217 NA
ENDBRANCH  19  30
ENDBRANCH   1  19
TORSDOF 4
