REMARK  Name = 
REMARK  13 active torsions:
REMARK  status: ('A' for Active; 'I' for Inactive)
REMARK    1  A    between atoms: C_4  and  C_5
REMARK    2  A    between atoms: C_5  and  C_6
REMARK    3  A    between atoms: C_5  and  C_7
REMARK    4  A    between atoms: C_7  and  C_8
REMARK    5  A    between atoms: C_8  and  C_9
REMARK    6  A    between atoms: N_11  and  C_12
REMARK    7  A    between atoms: C_12  and  C_13
REMARK    8  A    between atoms: C_13  and  S_14
REMARK    9  A    between atoms: S_14  and  O_15
REMARK   10  A    between atoms: C_18  and  C_19
REMARK   11  A    between atoms: C_24  and  O_25
REMARK   12  A    between atoms: C_29  and  O_30
REMARK   13  A    between atoms: C_33  and  C_34
REMARK                            x       y       z     vdW  Elec       q    Type
REMARK                         _______ _______ _______ _____ _____    ______ ____
ROOT
ATOM      1  C   UNL     1      -0.412   0.407   0.206  0.00  0.00    +0.001 C 
ATOM      2  C   UNL     1       0.651   1.274   0.852  0.00  0.00    +0.005 C 
ATOM      3  C   UNL     1       1.957   0.707   0.293  0.00  0.00    +0.004 C 
ATOM      4  C   UNL     1       1.623  -0.081  -1.017  0.00  0.00    -0.002 C 
ATOM      5  C   UNL     1       0.088   0.200  -1.231  0.00  0.00    -0.026 C 
ATOM      6  C   UNL     1      -0.018   1.486  -2.116  0.00  0.00    +0.012 C 
ATOM      7  C   UNL     1      -0.790  -0.913  -1.855  0.00  0.00    +0.007 C 
ATOM      8  C   UNL     1      -2.290  -0.546  -1.831  0.00  0.00    +0.005 C 
ATOM      9  C   UNL     1      -2.811  -0.159  -0.408  0.00  0.00    +0.001 C 
ATOM     10  C   UNL     1      -1.883   0.885   0.303  0.00  0.00    +0.025 C 
ATOM     11  C   UNL     1      -2.290   1.107   1.792  0.00  0.00    +0.118 C 
ATOM     12  C   UNL     1      -3.672   0.534   2.136  0.00  0.00    +0.035 C 
ATOM     13  C   UNL     1      -4.723   0.856   1.057  0.00  0.00    +0.000 C 
ATOM     14  C   UNL     1      -6.102   0.366   1.576  0.00  0.00    +0.035 C 
ATOM     15  C   UNL     1      -7.161   0.329   0.471  0.00  0.00    +0.115 C 
ATOM     16  C   UNL     1      -6.747  -0.616  -0.676  0.00  0.00    +0.032 C 
ATOM     17  C   UNL     1      -5.236  -0.928  -0.721  0.00  0.00    +0.010 C 
ATOM     18  C   UNL     1      -4.332   0.295  -0.377  0.00  0.00    -0.026 C 
ATOM     19  C   UNL     1      -4.583   1.406  -1.440  0.00  0.00    +0.012 C 
ENDROOT
BRANCH   4  20
ATOM     20  C   UNL     1       2.093  -1.589  -0.981  0.00  0.00    -0.010 C 
ATOM     21  C   UNL     1       1.971  -2.270  -2.371  0.00  0.00    +0.008 C 
BRANCH  20  22
ATOM     22  C   UNL     1       3.552  -1.792  -0.462  0.00  0.00    +0.013 C 
BRANCH  22  23
ATOM     23  C   UNL     1       4.618  -1.018  -1.260  0.00  0.00    +0.096 C 
BRANCH  23  24
ATOM     24  C   UNL     1       5.990  -1.246  -0.690  0.00  0.00    +0.213 C 
ATOM     25  O   UNL     1       6.424  -2.424  -0.559  0.00  0.00    -0.276 OA
ATOM     26  N   UNL     1       6.812  -0.129  -0.321  0.00  0.00    -0.314 N 
ATOM     27  H   UNL     1       6.506   0.839  -0.571  0.00  0.00    +0.149 HD
BRANCH  26  28
ATOM     28  C   UNL     1       8.094  -0.291   0.362  0.00  0.00    +0.129 C 
BRANCH  28  29
ATOM     29  C   UNL     1       7.892  -0.679   1.831  0.00  0.00    +0.216 C 
BRANCH  29  30
ATOM     30  S   UNL     1       7.072   0.615   2.758  0.00  0.00    +0.081 S 
ATOM     31  O   UNL     1       7.791   1.919   2.554  0.00  0.00    -0.147 OA
ATOM     32  O   UNL     1       5.645   0.745   2.302  0.00  0.00    -0.147 OA
BRANCH  30  33
ATOM     33  O   UNL     1       7.098   0.211   4.389  0.00  0.00    -0.254 OA
ATOM     34  H   UNL     1       6.731   1.006   4.854  0.00  0.00    +0.244 HD
ENDBRANCH  30  33
ENDBRANCH  29  30
ENDBRANCH  28  29
ENDBRANCH  26  28
ENDBRANCH  23  24
ENDBRANCH  22  23
ENDBRANCH  20  22
ENDBRANCH   4  20
BRANCH  11  35
ATOM     35  O   UNL     1      -2.266   2.483   2.077  0.00  0.00    -0.391 OA
ATOM     36  H   UNL     1      -2.149   2.579   3.057  0.00  0.00    +0.210 HD
ENDBRANCH  11  35
BRANCH  15  37
ATOM     37  O   UNL     1      -8.389  -0.100   1.000  0.00  0.00    -0.392 OA
ATOM     38  H   UNL     1      -8.745   0.645   1.551  0.00  0.00    +0.210 HD
ENDBRANCH  15  37
TORSDOF 10
