REMARK  Name = 
REMARK  8 active torsions:
REMARK  status: ('A' for Active; 'I' for Inactive)
REMARK    1  A    between atoms: C_1  and  C_2
REMARK    2  A    between atoms: C_2  and  O_3
REMARK    3  A    between atoms: O_3  and  C_4
REMARK    4  A    between atoms: C_4  and  C_6
REMARK    5  A    between atoms: C_9  and  C_12
REMARK    6  A    between atoms: C_13  and  C_14
REMARK    7  A    between atoms: C_21  and  C_22
REMARK    8  A    between atoms: C_21  and  C_23
REMARK                            x       y       z     vdW  Elec       q    Type
REMARK                         _______ _______ _______ _____ _____    ______ ____
ROOT
ATOM      1  C   UNL     1       0.806  -0.470   0.069  0.00  0.00    -0.041 C 
ATOM      2  C   UNL     1      -0.377  -0.690   0.132  0.00  0.00    -0.060 C 
ENDROOT
BRANCH   2   3
ATOM      3  C   UNL     1      -1.790  -0.953   0.208  0.00  0.00    +0.026 A 
ATOM      4  C   UNL     1      -2.706   0.105   0.127  0.00  0.00    +0.022 A 
ATOM      5  C   UNL     1      -4.100  -0.136   0.184  0.00  0.00    -0.027 A 
ATOM      6  C   UNL     1      -4.533  -1.465   0.399  0.00  0.00    +0.012 A 
ATOM      7  S   UNL     1      -6.279  -1.841   0.542  0.00  0.00    -0.125 S 
ATOM      8  C   UNL     1      -6.625  -0.931  -0.986  0.00  0.00    +0.075 C 
ATOM      9  C   UNL     1      -6.387   0.578  -0.799  0.00  0.00    +0.022 C 
ATOM     10  C   UNL     1      -5.142   0.997   0.075  0.00  0.00    -0.008 C 
ATOM     11  C   UNL     1      -4.550   2.283  -0.559  0.00  0.00    +0.016 C 
ATOM     12  C   UNL     1      -5.601   1.365   1.505  0.00  0.00    +0.016 C 
ATOM     13  C   UNL     1      -3.614  -2.518   0.451  0.00  0.00    +0.016 A 
ATOM     14  C   UNL     1      -2.247  -2.264   0.358  0.00  0.00    +0.018 A 
ENDBRANCH   2   3
BRANCH   1  18
ATOM     15  C   UNL     1       4.945   0.334  -0.186  0.00  0.00    +0.077 A 
ATOM     16  C   UNL     1       4.011   0.984  -1.012  0.00  0.00    +0.127 A 
ATOM     17  N   UNL     1       2.685   0.701  -0.903  0.00  0.00    -0.246 NA
ATOM     18  C   UNL     1       2.217  -0.207  -0.007  0.00  0.00    +0.114 A 
ATOM     19  C   UNL     1       3.107  -0.879   0.836  0.00  0.00    +0.038 A 
ATOM     20  C   UNL     1       4.473  -0.606   0.744  0.00  0.00    +0.019 A 
BRANCH  15  21
ATOM     21  C   UNL     1       6.391   0.629  -0.292  0.00  0.00    +0.341 C 
ATOM     22  O   UNL     1       6.804   1.474  -1.134  0.00  0.00    -0.245 OA
BRANCH  21  23
ATOM     23  O   UNL     1       7.298  -0.027   0.549  0.00  0.00    -0.461 OA
BRANCH  23  25
ATOM     24  C   UNL     1       9.292  -0.588  -0.716  0.00  0.00    +0.048 C 
ATOM     25  C   UNL     1       8.711   0.157   0.480  0.00  0.00    +0.229 C 
ENDBRANCH  23  25
ENDBRANCH  21  23
ENDBRANCH  15  21
ENDBRANCH   1  18
TORSDOF 5
