REMARK  Name = 
REMARK  5 active torsions:
REMARK  status: ('A' for Active; 'I' for Inactive)
REMARK    1  A    between atoms: C_6  and  C_7
REMARK    2  A    between atoms: C_7  and  O_8
REMARK    3  A    between atoms: C_10  and  C_11
REMARK    4  A    between atoms: C_10  and  C_12
REMARK    5  A    between atoms: C_12  and  N_13
REMARK                            x       y       z     vdW  Elec       q    Type
REMARK                         _______ _______ _______ _____ _____    ______ ____
ROOT
ATOM      1  C   UNL     1      -2.148  -1.174  -0.083  0.00  0.00    +0.229 C 
ATOM      2  C   UNL     1      -2.489  -1.798  -1.333  0.00  0.00    +0.142 C 
ATOM      3  C   UNL     1      -2.205  -0.487  -1.995  0.00  0.00    +0.221 C 
ATOM      4  O   UNL     1      -2.255  -0.054  -3.175  0.00  0.00    -0.275 OA
ATOM      5  N   UNL     1      -1.752   0.060  -0.695  0.00  0.00    -0.263 N 
ATOM      6  C   UNL     1      -0.561   0.799  -0.307  0.00  0.00    +0.215 C 
ATOM      7  C   UNL     1       0.076  -0.015   0.884  0.00  0.00    +0.135 C 
ATOM      8  C   UNL     1      -0.364   0.553   2.256  0.00  0.00    +0.040 C 
ATOM      9  S   UNL     1      -0.659  -1.673   0.745  0.00  0.00    -0.002 S 
ATOM     10  O   UNL     1      -0.964  -2.294   2.080  0.00  0.00    -0.172 OA
ATOM     11  O   UNL     1       0.157  -2.618  -0.090  0.00  0.00    -0.172 OA
ENDROOT
BRANCH   6  12
ATOM     12  C   UNL     1      -0.889   2.237  -0.009  0.00  0.00    +0.328 C 
ATOM     13  O   UNL     1      -2.047   2.568   0.364  0.00  0.00    -0.249 OA
BRANCH  12  14
ATOM     14  O   UNL     1       0.110   3.200  -0.105  0.00  0.00    -0.479 OA
ATOM     15  H   UNL     1      -0.083   4.171   0.108  0.00  0.00    +0.295 HD
ENDBRANCH  12  14
ENDBRANCH   6  12
BRANCH   7  16
ATOM     16  C   UNL     1       1.635  -0.052   0.865  0.00  0.00    +0.177 C 
BRANCH  16  17
ATOM     17  N   UNL     1       2.221  -0.312  -0.452  0.00  0.00    -0.250 N 
ATOM     18  C   UNL     1       2.697   0.605  -1.313  0.00  0.00    +0.130 A 
ATOM     19  C   UNL     1       3.235  -0.093  -2.370  0.00  0.00    +0.156 A 
ATOM     20  N   UNL     1       3.091  -1.409  -2.115  0.00  0.00    -0.138 NA
ATOM     21  N   UNL     1       2.483  -1.512  -0.942  0.00  0.00    -0.066 NA
ENDBRANCH  16  17
ENDBRANCH   7  16
TORSDOF 4
