REMARK  Name = 
REMARK  18 active torsions:
REMARK  status: ('A' for Active; 'I' for Inactive)
REMARK    1  A    between atoms: C_6  and  C_35
REMARK    2  A    between atoms: C_9  and  C_11
REMARK    3  A    between atoms: C_11  and  N_12
REMARK    4  A    between atoms: C_11  and  C_31
REMARK    5  A    between atoms: C_13  and  C_15
REMARK    6  A    between atoms: C_15  and  N_16
REMARK    7  A    between atoms: C_15  and  C_25
REMARK    8  A    between atoms: C_17  and  C_19
REMARK    9  A    between atoms: C_31  and  C_32
REMARK   10  A    between atoms: C_31  and  C_33
REMARK   11  A    between atoms: C_31  and  C_34
REMARK   12  A    between atoms: N_37  and  C_38
REMARK   13  A    between atoms: C_38  and  C_39
REMARK   14  A    between atoms: C_38  and  C_42
REMARK   15  A    between atoms: C_39  and  C_40
REMARK   16  A    between atoms: C_40  and  C_41
REMARK   17  A    between atoms: C_42  and  C_44
REMARK   18  A    between atoms: N_46  and  C_47
REMARK                            x       y       z     vdW  Elec       q    Type
REMARK                         _______ _______ _______ _____ _____    ______ ____
ROOT
ATOM      1  C   UNL     1       1.441  -2.940   2.295  0.00  0.00    +0.012 C 
ATOM      2  C   UNL     1       0.711  -2.883   3.637  0.00  0.00    +0.005 C 
ATOM      3  C   UNL     1       1.667  -2.155   4.563  0.00  0.00    +0.001 C 
ATOM      4  C   UNL     1       2.398  -1.147   3.684  0.00  0.00    +0.006 C 
ATOM      5  C   UNL     1       2.289  -1.674   2.243  0.00  0.00    +0.023 C 
ATOM      6  C   UNL     1       1.554  -0.725   1.277  0.00  0.00    +0.165 C 
ATOM      7  N   UNL     1       0.623  -1.561   0.527  0.00  0.00    -0.288 N 
ATOM      8  C   UNL     1       0.505  -2.899   1.084  0.00  0.00    +0.112 C 
ATOM      9  C   UNL     1      -0.257  -1.025  -0.487  0.00  0.00    +0.237 C 
ATOM     10  O   UNL     1      -0.275   0.222  -0.685  0.00  0.00    -0.274 OA
ENDROOT
BRANCH   6  11
ATOM     11  C   UNL     1       2.524  -0.022   0.365  0.00  0.00    +0.234 C 
ATOM     12  O   UNL     1       3.085  -0.663  -0.565  0.00  0.00    -0.274 OA
ATOM     13  N   UNL     1       2.838   1.362   0.579  0.00  0.00    -0.304 N 
ATOM     14  H   UNL     1       2.402   1.848   1.396  0.00  0.00    +0.149 HD
BRANCH  13  15
ATOM     15  C   UNL     1       3.757   2.099  -0.292  0.00  0.00    +0.149 C 
BRANCH  15  16
ATOM     16  C   UNL     1       5.181   1.724   0.054  0.00  0.00    +0.237 C 
ATOM     17  O   UNL     1       5.518   1.658   1.267  0.00  0.00    -0.285 OA
BRANCH  16  18
ATOM     18  C   UNL     1       6.196   1.480  -0.995  0.00  0.00    +0.282 C 
ATOM     19  O   UNL     1       5.872   1.553  -2.212  0.00  0.00    -0.267 OA
ATOM     20  N   UNL     1       7.551   1.173  -0.633  0.00  0.00    -0.306 N 
ATOM     21  H   UNL     1       7.791   1.058   0.380  0.00  0.00    +0.149 HD
BRANCH  20  22
ATOM     22  C   UNL     1       8.608   1.078  -1.643  0.00  0.00    +0.073 C 
ATOM     23  C   UNL     1       9.695   0.074  -1.302  0.00  0.00    +0.024 C 
ATOM     24  C   UNL     1       9.966   1.562  -1.155  0.00  0.00    +0.024 C 
ENDBRANCH  20  22
ENDBRANCH  16  18
ENDBRANCH  15  16
BRANCH  15  25
ATOM     25  C   UNL     1       3.528   3.618  -0.117  0.00  0.00    +0.030 C 
BRANCH  25  26
ATOM     26  C   UNL     1       4.286   4.493  -1.129  0.00  0.00    -0.001 C 
ATOM     27  C   UNL     1       3.713   4.397  -2.543  0.00  0.00    +0.004 C 
ENDBRANCH  25  26
ENDBRANCH  15  25
ENDBRANCH  13  15
ENDBRANCH   6  11
BRANCH   9  28
ATOM     28  C   UNL     1      -1.149  -1.911  -1.340  0.00  0.00    +0.164 C 
BRANCH  28  29
ATOM     29  N   UNL     1      -2.470  -1.280  -1.472  0.00  0.00    -0.302 N 
ATOM     30  C   UNL     1      -3.356  -1.106  -0.353  0.00  0.00    +0.234 C 
ATOM     31  O   UNL     1      -3.028  -1.540   0.785  0.00  0.00    -0.274 OA
ATOM     32  H   UNL     1      -2.774  -0.888  -2.390  0.00  0.00    +0.150 HD
BRANCH  30  33
ATOM     33  C   UNL     1      -4.648  -0.343  -0.531  0.00  0.00    +0.162 C 
BRANCH  33  34
ATOM     34  C   UNL     1      -4.494   1.182  -0.267  0.00  0.00    +0.018 C 
ATOM     35  C   UNL     1      -3.966   1.518   1.150  0.00  0.00    +0.006 C 
ATOM     36  C   UNL     1      -3.882   3.037   1.356  0.00  0.00    +0.000 C 
ATOM     37  C   UNL     1      -3.001   3.691   0.288  0.00  0.00    +0.000 C 
ATOM     38  C   UNL     1      -3.515   3.366  -1.119  0.00  0.00    +0.000 C 
ATOM     39  C   UNL     1      -3.604   1.852  -1.339  0.00  0.00    +0.006 C 
ENDBRANCH  33  34
BRANCH  33  40
ATOM     40  N   UNL     1      -5.695  -0.912   0.325  0.00  0.00    -0.298 N 
ATOM     41  C   UNL     1      -6.845  -1.604  -0.189  0.00  0.00    +0.264 C 
ATOM     42  O   UNL     1      -6.907  -1.901  -1.414  0.00  0.00    -0.268 OA
ATOM     43  H   UNL     1      -5.583  -0.846   1.360  0.00  0.00    +0.150 HD
BRANCH  41  44
ATOM     44  C   UNL     1      -7.961  -1.972   0.709  0.00  0.00    +0.143 A 
ATOM     45  N   UNL     1      -7.940  -1.587   2.015  0.00  0.00    -0.247 NA
ATOM     46  C   UNL     1      -8.952  -1.899   2.866  0.00  0.00    +0.131 A 
ATOM     47  C   UNL     1     -10.046  -2.626   2.392  0.00  0.00    +0.130 A 
ATOM     48  N   UNL     1     -10.080  -3.008   1.089  0.00  0.00    -0.259 NA
ATOM     49  C   UNL     1      -9.066  -2.700   0.237  0.00  0.00    +0.143 A 
ENDBRANCH  41  44
ENDBRANCH  33  40
ENDBRANCH  30  33
ENDBRANCH  28  29
BRANCH  28  50
ATOM     50  C   UNL     1      -0.507  -2.244  -2.739  0.00  0.00    -0.011 C 
ATOM     51  C   UNL     1       0.786  -3.064  -2.542  0.00  0.00    +0.013 C 
ATOM     52  C   UNL     1      -0.154  -0.967  -3.540  0.00  0.00    +0.013 C 
ATOM     53  C   UNL     1      -1.482  -3.108  -3.577  0.00  0.00    +0.013 C 
ENDBRANCH  28  50
ENDBRANCH   9  28
TORSDOF 14
