REMARK  Name = 
REMARK  5 active torsions:
REMARK  status: ('A' for Active; 'I' for Inactive)
REMARK    1  A    between atoms: C5M_1  and  C5_2
REMARK    2  A    between atoms: N1_4  and  C1*_5
REMARK    3  A    between atoms: C3*_7  and  O3*_8
REMARK    4  A    between atoms: C4*_9  and  C5*_10
REMARK    5  A    between atoms: C5*_10  and  O5*_11
REMARK                            x       y       z     vdW  Elec       q    Type
REMARK                         _______ _______ _______ _____ _____    ______ ____
ROOT
ATOM      1  C5M   T A   1       3.292   0.650  -1.830  0.00  0.00    +0.051 C 
ATOM      2  C5    T A   1       2.725   0.270  -0.490  0.00  0.00    +0.030 A 
ATOM      3  C6    T A   1       1.343   0.275  -0.275  0.00  0.00    +0.101 A 
ATOM      4  N1    T A   1       0.820  -0.083   0.939  0.00  0.00    -0.274 N 
ATOM      5  C2    T A   1       1.660  -0.500   1.940  0.00  0.00    +0.331 A 
ATOM      6  O2    T A   1       1.198  -0.875   3.053  0.00  0.00    -0.246 OA
ATOM      7  N3    T A   1       3.007  -0.521   1.743  0.00  0.00    -0.275 N 
ATOM      8  C4    T A   1       3.553  -0.148   0.557  0.00  0.00    +0.257 A 
ATOM      9  O4    T A   1       4.805  -0.188   0.406  0.00  0.00    -0.267 OA
ATOM     10  H3    T A   1       3.634  -0.838   2.518  0.00  0.00    +0.173 HD
ENDROOT
BRANCH   4  11
ATOM     11  C1*   T A   1      -0.646  -0.092   1.130  0.00  0.00    +0.226 C 
ATOM     12  C2*   T A   1      -1.248  -1.391   0.624  0.00  0.00    +0.088 C 
ATOM     13  C3*   T A   1      -2.620  -0.971   0.171  0.00  0.00    +0.150 C 
ATOM     14  C4*   T A   1      -2.459   0.530  -0.117  0.00  0.00    +0.175 C 
ATOM     15  O4*   T A   1      -1.248   0.989   0.450  0.00  0.00    -0.348 OA
BRANCH  13  16
ATOM     16  O3*   T A   1      -3.585  -1.203   1.171  0.00  0.00    -0.389 OA
ATOM     17  H3*   T A   1      -3.318  -0.698   1.984  0.00  0.00    +0.210 HD
ENDBRANCH  13  16
BRANCH  14  18
ATOM     18  C5*   T A   1      -2.450   0.815  -1.627  0.00  0.00    +0.190 C 
BRANCH  18  19
ATOM     19  O5*   T A   1      -2.253   2.182  -1.867  0.00  0.00    -0.392 OA
ATOM     20  H5*   T A   1      -3.114   2.634  -1.663  0.00  0.00    +0.210 HD
ENDBRANCH  18  19
ENDBRANCH  14  18
ENDBRANCH   4  11
TORSDOF 4
