REMARK  Name = 
REMARK  23 active torsions:
REMARK  status: ('A' for Active; 'I' for Inactive)
REMARK    1  A    between atoms: C_1  and  C_2
REMARK    2  A    between atoms: C_2  and  C_3
REMARK    3  A    between atoms: C_7  and  C_8
REMARK    4  A    between atoms: C_11  and  C_12
REMARK    5  A    between atoms: C_13  and  O_14
REMARK    6  A    between atoms: O_14  and  C_15
REMARK    7  A    between atoms: C_17  and  C_18
REMARK    8  A    between atoms: C_20  and  N_23
REMARK    9  A    between atoms: C_21  and  O_22
REMARK   10  A    between atoms: N_23  and  C_24
REMARK   11  A    between atoms: N_23  and  C_25
REMARK   12  A    between atoms: C_26  and  C_27
REMARK   13  A    between atoms: C_26  and  O_57
REMARK   14  A    between atoms: C_29  and  C_30
REMARK   15  A    between atoms: C_33  and  C_34
REMARK   16  A    between atoms: N_36  and  C_37
REMARK   17  A    between atoms: C_37  and  C_38
REMARK   18  A    between atoms: C_38  and  C_39
REMARK   19  A    between atoms: C_39  and  C_40
REMARK   20  A    between atoms: C_40  and  N_41
REMARK   21  A    between atoms: C_44  and  C_46
REMARK   22  A    between atoms: C_55  and  C_56
REMARK   23  A    between atoms: O_57  and  C_58
REMARK                            x       y       z     vdW  Elec       q    Type
REMARK                         _______ _______ _______ _____ _____    ______ ____
ROOT
ATOM      1  C   UNL     1       1.872  -2.856   0.219  0.00  0.00    +0.221 C 
ATOM      2  O   UNL     1       0.563  -2.385   0.576  0.00  0.00    -0.457 OA
ATOM      3  C   UNL     1       0.318  -1.723   1.791  0.00  0.00    +0.318 C 
ATOM      4  O   UNL     1       1.260  -1.122   2.380  0.00  0.00    -0.250 OA
ATOM      5  C   UNL     1      -1.037  -1.741   2.454  0.00  0.00    +0.161 C 
ATOM      6  C   UNL     1      -1.024  -2.728   3.627  0.00  0.00    +0.027 C 
ATOM      7  C   UNL     1      -2.183  -2.062   1.505  0.00  0.00    +0.152 C 
ATOM      8  O   UNL     1      -2.339  -3.219   1.154  0.00  0.00    -0.296 OA
ATOM      9  C   UNL     1      -3.300  -1.048   1.289  0.00  0.00    +0.085 C 
ATOM     10  C   UNL     1      -4.300  -1.300   2.430  0.00  0.00    +0.018 C 
ATOM     11  C   UNL     1      -4.046  -1.040  -0.102  0.00  0.00    +0.163 C 
ATOM     12  C   UNL     1      -3.186  -1.146  -1.439  0.00  0.00    +0.094 C 
ATOM     13  C   UNL     1      -4.179  -1.487  -2.607  0.00  0.00    +0.044 C 
ATOM     14  C   UNL     1      -2.529   0.228  -1.874  0.00  0.00    +0.048 C 
ATOM     15  C   UNL     1      -1.077   0.634  -1.474  0.00  0.00    +0.055 C 
ATOM     16  C   UNL     1      -0.947   1.089  -0.024  0.00  0.00    +0.015 C 
ATOM     17  C   UNL     1       0.039  -0.302  -1.959  0.00  0.00    +0.141 C 
ATOM     18  O   UNL     1      -0.175  -0.965  -2.964  0.00  0.00    -0.297 OA
ATOM     19  C   UNL     1       1.488  -0.179  -1.447  0.00  0.00    +0.077 C 
ATOM     20  C   UNL     1       2.018   1.185  -1.943  0.00  0.00    +0.017 C 
ATOM     21  C   UNL     1       2.408  -1.387  -1.915  0.00  0.00    +0.136 C 
ATOM     22  N   UNL     1       3.883  -1.270  -1.759  0.00  0.00    -0.260 N 
ATOM     23  C   UNL     1       4.345  -2.609  -1.741  0.00  0.00    +0.404 C 
ATOM     24  O   UNL     1       5.556  -2.939  -1.846  0.00  0.00    -0.226 OA
ATOM     25  O   UNL     1       3.331  -3.517  -1.591  0.00  0.00    -0.438 OA
ATOM     26  C   UNL     1       2.105  -2.836  -1.334  0.00  0.00    +0.168 C 
ATOM     27  C   UNL     1       1.006  -3.583  -2.092  0.00  0.00    +0.062 C 
ENDROOT
BRANCH   1  29
ATOM     28  C   UNL     1       2.438  -4.222   2.316  0.00  0.00    +0.007 C 
ATOM     29  C   UNL     1       2.072  -4.269   0.831  0.00  0.00    +0.045 C 
ENDBRANCH   1  29
BRANCH  12  30
ATOM     30  O   UNL     1      -2.157  -2.131  -1.321  0.00  0.00    -0.374 OA
ATOM     31  C   UNL     1      -2.579  -3.464  -1.590  0.00  0.00    +0.194 C 
ENDBRANCH  12  30
BRANCH  11  32
ATOM     32  O   UNL     1      -4.839   0.158  -0.156  0.00  0.00    -0.342 OA
BRANCH  32  33
ATOM     33  C   UNL     1      -6.252  -0.045  -0.166  0.00  0.00    +0.281 C 
ATOM     34  O   UNL     1      -6.758   0.081  -1.494  0.00  0.00    -0.346 OA
ATOM     35  C   UNL     1      -6.934   1.413  -1.987  0.00  0.00    +0.120 C 
ATOM     36  C   UNL     1      -6.216   1.585  -3.326  0.00  0.00    +0.038 C 
ATOM     37  C   UNL     1      -6.534   2.542  -1.025  0.00  0.00    +0.053 C 
ATOM     38  C   UNL     1      -7.269   2.313   0.298  0.00  0.00    +0.092 C 
ATOM     39  C   UNL     1      -6.948   0.909   0.861  0.00  0.00    +0.187 C 
BRANCH  38  40
ATOM     40  N   UNL     1      -7.022   3.366   1.325  0.00  0.00    -0.303 NA
ATOM     41  C   UNL     1      -5.613   3.789   1.446  0.00  0.00    +0.105 C 
ATOM     42  C   UNL     1      -7.896   4.536   1.136  0.00  0.00    +0.105 C 
ENDBRANCH  38  40
BRANCH  39  43
ATOM     43  O   UNL     1      -8.139   0.323   1.328  0.00  0.00    -0.385 OA
ATOM     44  H   UNL     1      -7.880  -0.372   1.991  0.00  0.00    +0.210 HD
ENDBRANCH  39  43
ENDBRANCH  32  33
ENDBRANCH  11  32
BRANCH  22  45
ATOM     45  C   UNL     1       4.766  -0.157  -1.380  0.00  0.00    +0.111 C 
BRANCH  45  46
ATOM     46  C   UNL     1       4.702   0.149   0.129  0.00  0.00    +0.021 C 
BRANCH  46  47
ATOM     47  C   UNL     1       5.384  -0.908   1.022  0.00  0.00    +0.023 C 
BRANCH  47  48
ATOM     48  C   UNL     1       6.916  -0.946   0.902  0.00  0.00    +0.123 C 
BRANCH  48  49
ATOM     49  N   UNL     1       7.515   0.318   1.322  0.00  0.00    -0.336 N 
ATOM     50  C   UNL     1       7.711   0.737   2.587  0.00  0.00    +0.199 A 
ATOM     51  N   UNL     1       8.294   1.952   2.641  0.00  0.00    -0.236 NA
ATOM     52  C   UNL     1       8.456   2.306   1.347  0.00  0.00    +0.090 A 
ATOM     53  C   UNL     1       7.973   1.300   0.529  0.00  0.00    +0.115 A 
BRANCH  52  54
ATOM     54  C   UNL     1       9.084   3.577   0.916  0.00  0.00    +0.020 A 
ATOM     55  C   UNL     1       9.063   3.992  -0.427  0.00  0.00    +0.013 A 
ATOM     56  C   UNL     1       9.668   5.193  -0.801  0.00  0.00    +0.020 A 
ATOM     57  C   UNL     1      10.293   5.975   0.171  0.00  0.00    +0.111 A 
ATOM     58  N   UNL     1      10.309   5.567   1.468  0.00  0.00    -0.263 NA
ATOM     59  C   UNL     1       9.725   4.403   1.858  0.00  0.00    +0.120 A 
ENDBRANCH  52  54
ENDBRANCH  48  49
ENDBRANCH  47  48
ENDBRANCH  46  47
ENDBRANCH  45  46
ENDBRANCH  22  45
TORSDOF 12
