REMARK  Name = 
REMARK  11 active torsions:
REMARK  status: ('A' for Active; 'I' for Inactive)
REMARK    1  A    between atoms: C_1  and  C_2
REMARK    2  A    between atoms: C_2  and  C_3
REMARK    3  A    between atoms: C_3  and  C_4
REMARK    4  A    between atoms: C_9  and  C_13
REMARK    5  A    between atoms: C_11  and  C_12
REMARK    6  A    between atoms: N_21  and  C_22
REMARK    7  A    between atoms: N_23  and  C_24
REMARK    8  A    between atoms: C_24  and  C_25
REMARK    9  A    between atoms: C_28  and  C_31
REMARK   10  A    between atoms: C_36  and  C_37
REMARK   11  A    between atoms: C_37  and  O_38
REMARK                            x       y       z     vdW  Elec       q    Type
REMARK                         _______ _______ _______ _____ _____    ______ ____
ROOT
ATOM      1  C   UNL     1      -0.101  -2.466  -1.919  0.00  0.00    +0.111 A 
ATOM      2  N   UNL     1      -1.106  -2.101  -2.756  0.00  0.00    -0.232 NA
ATOM      3  C   UNL     1      -1.866  -1.293  -1.994  0.00  0.00    +0.092 A 
ATOM      4  C   UNL     1      -1.338  -1.187  -0.740  0.00  0.00    +0.070 A 
ATOM      5  C   UNL     1      -1.944  -0.410   0.250  0.00  0.00    +0.039 A 
ATOM      6  C   UNL     1      -3.141   0.263  -0.072  0.00  0.00    +0.020 A 
ATOM      7  C   UNL     1      -3.673   0.164  -1.383  0.00  0.00    +0.017 A 
ATOM      8  C   UNL     1      -3.032  -0.621  -2.366  0.00  0.00    -0.022 A 
ATOM      9  C   UNL     1      -3.607  -0.764  -3.745  0.00  0.00    +0.046 C 
ATOM     10  N   UNL     1      -0.219  -1.933  -0.671  0.00  0.00    -0.323 N 
ENDROOT
BRANCH   6  11
ATOM     11  C   UNL     1      -3.794   1.109   0.949  0.00  0.00    +0.142 A 
ATOM     12  N   UNL     1      -3.080   1.931   1.762  0.00  0.00    -0.228 NA
ATOM     13  C   UNL     1      -4.028   2.522   2.511  0.00  0.00    +0.090 A 
ATOM     14  C   UNL     1      -3.847   3.476   3.510  0.00  0.00    +0.030 A 
ATOM     15  C   UNL     1      -4.993   3.965   4.164  0.00  0.00    +0.002 A 
ATOM     16  C   UNL     1      -6.276   3.492   3.808  0.00  0.00    +0.002 A 
ATOM     17  C   UNL     1      -6.425   2.526   2.795  0.00  0.00    +0.028 A 
ATOM     18  C   UNL     1      -5.266   2.063   2.167  0.00  0.00    +0.069 A 
ATOM     19  N   UNL     1      -5.137   1.151   1.188  0.00  0.00    -0.327 N 
ATOM     20  C   UNL     1      -6.204   0.370   0.564  0.00  0.00    +0.151 C 
ENDBRANCH   6  11
BRANCH   1  21
ATOM     21  C   UNL     1       0.974  -3.425  -2.340  0.00  0.00    +0.074 C 
BRANCH  21  23
ATOM     22  C   UNL     1       1.668  -5.847  -2.405  0.00  0.00    +0.004 C 
ATOM     23  C   UNL     1       0.564  -4.866  -2.022  0.00  0.00    +0.004 C 
ENDBRANCH  21  23
ENDBRANCH   1  21
BRANCH  10  24
ATOM     24  C   UNL     1       0.692  -2.091   0.469  0.00  0.00    +0.158 C 
BRANCH  24  25
ATOM     25  C   UNL     1       1.875  -1.166   0.337  0.00  0.00    -0.028 A 
ATOM     26  C   UNL     1       3.172  -1.685   0.195  0.00  0.00    +0.006 A 
ATOM     27  C   UNL     1       4.267  -0.827   0.067  0.00  0.00    +0.009 A 
ATOM     28  C   UNL     1       4.084   0.564   0.099  0.00  0.00    -0.017 A 
ATOM     29  C   UNL     1       2.788   1.085   0.239  0.00  0.00    +0.009 A 
ATOM     30  C   UNL     1       1.693   0.226   0.363  0.00  0.00    +0.006 A 
BRANCH  28  31
ATOM     31  C   UNL     1       5.243   1.471  -0.050  0.00  0.00    -0.004 A 
ATOM     32  C   UNL     1       5.970   1.419  -1.252  0.00  0.00    +0.009 A 
ATOM     33  C   UNL     1       7.025   2.301  -1.484  0.00  0.00    +0.001 A 
ATOM     34  C   UNL     1       7.368   3.247  -0.520  0.00  0.00    +0.001 A 
ATOM     35  C   UNL     1       6.667   3.306   0.685  0.00  0.00    +0.015 A 
ATOM     36  C   UNL     1       5.607   2.416   0.948  0.00  0.00    +0.067 A 
BRANCH  36  37
ATOM     37  C   UNL     1       4.945   2.473   2.276  0.00  0.00    +0.337 C 
ATOM     38  O   UNL     1       4.991   3.531   2.961  0.00  0.00    -0.245 OA
BRANCH  37  39
ATOM     39  O   UNL     1       4.300   1.355   2.801  0.00  0.00    -0.477 OA
ATOM     40  H   UNL     1       3.859   1.388   3.712  0.00  0.00    +0.295 HD
ENDBRANCH  37  39
ENDBRANCH  36  37
ENDBRANCH  28  31
ENDBRANCH  24  25
ENDBRANCH  10  24
TORSDOF 8
