REMARK  Name = 
REMARK  3 active torsions:
REMARK  status: ('A' for Active; 'I' for Inactive)
REMARK    1  A    between atoms: C_1  and  N_2
REMARK    2  A    between atoms: C_10  and  C_16
REMARK    3  A    between atoms: C_12  and  O_13
REMARK                            x       y       z     vdW  Elec       q    Type
REMARK                         _______ _______ _______ _____ _____    ______ ____
ROOT
ATOM      1  C   UNL     1      -2.925  -0.433  -2.085  0.00  0.00    +0.138 C 
ATOM      2  N   UNL     1      -2.314  -0.280  -0.761  0.00  0.00    -0.270 N 
ATOM      3  C   UNL     1      -1.490   0.871  -0.489  0.00  0.00    +0.045 A 
ATOM      4  C   UNL     1      -0.262   0.748   0.203  0.00  0.00    +0.023 A 
ATOM      5  C   UNL     1       0.496   1.903   0.471  0.00  0.00    +0.032 A 
ATOM      6  C   UNL     1       0.056   3.159   0.047  0.00  0.00    +0.042 A 
ATOM      7 CL   UNL     1       1.017   4.586   0.387  0.00  0.00    -0.084 Cl
ATOM      8  C   UNL     1      -1.149   3.277  -0.645  0.00  0.00    +0.022 A 
ATOM      9  C   UNL     1      -1.917   2.143  -0.910  0.00  0.00    +0.025 A 
ATOM     10  C   UNL     1       0.263  -0.574   0.643  0.00  0.00    +0.078 C 
ATOM     11  N   UNL     1      -0.498  -1.449   1.239  0.00  0.00    -0.243 NA
ATOM     12  C   UNL     1      -1.920  -1.326   1.559  0.00  0.00    +0.320 C 
ATOM     13  C   UNL     1      -2.745  -1.141   0.311  0.00  0.00    +0.271 C 
ATOM     14  O   UNL     1      -3.838  -1.763   0.212  0.00  0.00    -0.270 OA
ENDROOT
BRANCH  10  15
ATOM     15  C   UNL     1       1.691  -0.921   0.423  0.00  0.00    +0.001 A 
ATOM     16  C   UNL     1       2.394  -0.413  -0.687  0.00  0.00    +0.010 A 
ATOM     17  C   UNL     1       3.735  -0.751  -0.892  0.00  0.00    +0.001 A 
ATOM     18  C   UNL     1       4.387  -1.605   0.000  0.00  0.00    +0.000 A 
ATOM     19  C   UNL     1       3.699  -2.125   1.098  0.00  0.00    +0.001 A 
ATOM     20  C   UNL     1       2.358  -1.790   1.309  0.00  0.00    +0.010 A 
ENDBRANCH  10  15
BRANCH  12  21
ATOM     21  O   UNL     1      -2.142  -0.321   2.519  0.00  0.00    -0.364 OA
ATOM     22  H   UNL     1      -2.150   0.560   2.067  0.00  0.00    +0.212 HD
ENDBRANCH  12  21
TORSDOF 2
