REMARK  Name = 
REMARK  2 active torsions:
REMARK  status: ('A' for Active; 'I' for Inactive)
REMARK    1  A    between atoms: C_1  and  N_2
REMARK    2  A    between atoms: C_6  and  C_12
REMARK                            x       y       z     vdW  Elec       q    Type
REMARK                         _______ _______ _______ _____ _____    ______ ____
ROOT
ATOM      1  C   UNL     1      -3.087   1.361   1.024  0.00  0.00    +0.179 C 
ATOM      2  N   UNL     1      -1.813   0.791   0.592  0.00  0.00    -0.199 N 
ATOM      3  N   UNL     1      -0.668   1.361   1.000  0.00  0.00    -0.060 NA
ATOM      4  N   UNL     1       0.526   0.881   0.637  0.00  0.00    -0.110 NA
ATOM      5  C   UNL     1       0.566  -0.204  -0.166  0.00  0.00    +0.197 A 
ATOM      6  C   UNL     1       1.648  -0.903  -0.661  0.00  0.00    +0.171 A 
ATOM      7  N   UNL     1       1.175  -1.949  -1.385  0.00  0.00    -0.228 NA
ATOM      8  C   UNL     1      -0.176  -1.847  -1.312  0.00  0.00    +0.210 A 
ATOM      9  N   UNL     1      -0.554  -0.790  -0.572  0.00  0.00    -0.232 N 
ATOM     10  C   UNL     1      -1.769  -0.318  -0.212  0.00  0.00    +0.353 A 
ATOM     11  O   UNL     1      -2.824  -0.886  -0.605  0.00  0.00    -0.244 OA
ENDROOT
BRANCH   6  12
ATOM     12  C   UNL     1       3.088  -0.644  -0.462  0.00  0.00    +0.264 C 
ATOM     13  N   UNL     1       3.566   0.580   0.101  0.00  0.00    -0.324 N 
ATOM     14  O   UNL     1       3.919  -1.523  -0.811  0.00  0.00    -0.269 OA
ATOM     15  H   UNL     1       2.937   1.390   0.282  0.00  0.00    +0.145 HD
ATOM     16  H   UNL     1       4.588   0.707   0.273  0.00  0.00    +0.145 HD
ENDBRANCH   6  12
TORSDOF 1
