REMARK  Name = 
REMARK  26 active torsions:
REMARK  status: ('A' for Active; 'I' for Inactive)
REMARK    1  A    between atoms: O_1  and  C_2
REMARK    2  A    between atoms: C_2  and  C_3
REMARK    3  A    between atoms: C_3  and  C_4
REMARK    4  A    between atoms: C_3  and  C_5
REMARK    5  A    between atoms: C_3  and  C_7
REMARK    6  A    between atoms: C_5  and  O_6
REMARK    7  A    between atoms: C_7  and  O_9
REMARK    8  A    between atoms: O_9  and  C_10
REMARK    9  A    between atoms: C_13  and  C_14
REMARK   10  A    between atoms: C_14  and  C_15
REMARK   11  A    between atoms: C_15  and  C_16
REMARK   12  A    between atoms: C_15  and  C_17
REMARK   13  A    between atoms: C_21  and  C_22
REMARK   14  A    between atoms: C_24  and  C_25
REMARK   15  A    between atoms: C_26  and  O_27
REMARK   16  A    between atoms: C_28  and  O_29
REMARK   17  A    between atoms: O_29  and  C_30
REMARK   18  A    between atoms: C_33  and  C_34
REMARK   19  A    between atoms: C_36  and  C_37
REMARK   20  A    between atoms: C_43  and  C_44
REMARK   21  A    between atoms: C_45  and  O_46
REMARK   22  A    between atoms: O_46  and  C_47
REMARK   23  A    between atoms: C_52  and  C_53
REMARK   24  A    between atoms: C_54  and  O_55
REMARK   25  A    between atoms: C_71  and  O_72
REMARK   26  A    between atoms: O_72  and  C_73
REMARK                            x       y       z     vdW  Elec       q    Type
REMARK                         _______ _______ _______ _____ _____    ______ ____
ROOT
ATOM      1  C   UNL     1       1.468   0.148  -1.283  0.00  0.00    +0.186 C 
ATOM      2  C   UNL     1       0.031   0.709  -1.406  0.00  0.00    +0.119 C 
ATOM      3  C   UNL     1      -0.590   1.140  -0.081  0.00  0.00    +0.143 C 
ATOM      4  O   UNL     1      -0.188   0.636   0.957  0.00  0.00    -0.297 OA
ATOM      5  C   UNL     1      -1.795   2.062  -0.000  0.00  0.00    +0.075 C 
ATOM      6  C   UNL     1      -2.418   2.461  -1.345  0.00  0.00    +0.020 C 
ATOM      7  C   UNL     1      -1.544   3.213   0.969  0.00  0.00    -0.015 C 
ATOM      8  C   UNL     1      -0.896   4.380   0.729  0.00  0.00    -0.045 C 
ATOM      9  C   UNL     1      -0.324   4.709  -0.630  0.00  0.00    +0.041 C 
ATOM     10  C   UNL     1      -0.714   5.375   1.873  0.00  0.00    +0.176 C 
ATOM     11  C   UNL     1      -1.694   6.579   1.804  0.00  0.00    +0.216 C 
ATOM     12  C   UNL     1      -3.133   6.163   2.079  0.00  0.00    +0.167 C 
ATOM     13  O   UNL     1      -3.516   6.123   3.241  0.00  0.00    -0.294 OA
ATOM     14  C   UNL     1      -4.082   5.766   0.961  0.00  0.00    +0.055 C 
ATOM     15  C   UNL     1      -5.089   6.877   0.635  0.00  0.00    +0.015 C 
ATOM     16  C   UNL     1      -4.717   4.367   1.191  0.00  0.00    +0.018 C 
ATOM     17  C   UNL     1      -6.145   4.238   1.776  0.00  0.00    +0.009 C 
ATOM     18  C   UNL     1      -6.236   4.762   3.220  0.00  0.00    +0.012 C 
ATOM     19  C   UNL     1      -6.518   2.765   1.768  0.00  0.00    -0.024 C 
ATOM     20  C   UNL     1      -6.665   2.080   0.621  0.00  0.00    -0.004 C 
ATOM     21  C   UNL     1      -6.623   0.601   0.525  0.00  0.00    -0.000 C 
ATOM     22  C   UNL     1      -6.853  -0.225   1.558  0.00  0.00    +0.000 C 
ATOM     23  C   UNL     1      -6.556  -1.668   1.506  0.00  0.00    +0.001 C 
ATOM     24  C   UNL     1      -6.967  -2.543   0.560  0.00  0.00    -0.044 C 
ATOM     25  C   UNL     1      -7.903  -2.108  -0.546  0.00  0.00    +0.042 C 
ATOM     26  C   UNL     1      -6.642  -4.014   0.812  0.00  0.00    +0.146 C 
ATOM     27  C   UNL     1      -6.756  -4.959  -0.407  0.00  0.00    +0.067 C 
ATOM     28  C   UNL     1      -5.821  -4.620  -1.586  0.00  0.00    +0.125 C 
ATOM     29  C   UNL     1      -6.022  -5.657  -2.720  0.00  0.00    +0.032 C 
ATOM     30  C   UNL     1      -4.710  -5.973  -3.445  0.00  0.00    +0.011 C 
ATOM     31  C   UNL     1      -3.824  -4.723  -3.558  0.00  0.00    +0.054 C 
ATOM     32  C   UNL     1      -4.423  -3.721  -4.568  0.00  0.00    +0.013 C 
ATOM     33  C   UNL     1      -3.571  -4.112  -2.118  0.00  0.00    +0.240 C 
ATOM     34  O   UNL     1      -4.480  -4.628  -1.136  0.00  0.00    -0.339 OA
ATOM     35  C   UNL     1      -2.181  -4.499  -1.628  0.00  0.00    +0.276 C 
ATOM     36  O   UNL     1      -1.703  -5.620  -1.965  0.00  0.00    -0.281 OA
ATOM     37  C   UNL     1      -1.409  -3.694  -0.649  0.00  0.00    +0.288 C 
ATOM     38  O   UNL     1      -1.790  -2.537  -0.318  0.00  0.00    -0.267 OA
ATOM     39  N   UNL     1      -0.203  -4.234  -0.069  0.00  0.00    -0.282 N 
ATOM     40  C   UNL     1      -0.317  -5.433   0.776  0.00  0.00    +0.109 C 
ATOM     41  C   UNL     1       0.878  -6.358   0.542  0.00  0.00    +0.019 C 
ATOM     42  C   UNL     1       2.196  -5.597   0.718  0.00  0.00    +0.004 C 
ATOM     43  C   UNL     1       2.247  -4.383  -0.213  0.00  0.00    +0.034 C 
ATOM     44  C   UNL     1       1.048  -3.452   0.033  0.00  0.00    +0.185 C 
ATOM     45  C   UNL     1       1.102  -2.295  -0.930  0.00  0.00    +0.328 C 
ATOM     46  O   UNL     1       0.866  -2.483  -2.153  0.00  0.00    -0.249 OA
ATOM     47  O   UNL     1       1.457  -1.022  -0.458  0.00  0.00    -0.459 OA
ENDROOT
BRANCH   1  48
ATOM     48  C   UNL     1       2.473   1.220  -0.741  0.00  0.00    +0.027 C 
ATOM     49  C   UNL     1       2.934   2.163  -1.864  0.00  0.00    +0.011 C 
BRANCH  48  50
ATOM     50  C   UNL     1       3.676   0.614   0.029  0.00  0.00    +0.010 C 
BRANCH  50  54
ATOM     51  C   UNL     1       7.165   0.064   0.519  0.00  0.00    +0.205 C 
ATOM     52  C   UNL     1       6.196  -0.987   1.104  0.00  0.00    +0.047 C 
ATOM     53  C   UNL     1       5.134  -1.480   0.107  0.00  0.00    +0.007 C 
ATOM     54  C   UNL     1       4.584  -0.351  -0.793  0.00  0.00    -0.008 C 
ATOM     55  C   UNL     1       5.730   0.396  -1.540  0.00  0.00    +0.039 C 
ATOM     56  C   UNL     1       7.150   0.069  -1.024  0.00  0.00    +0.159 C 
BRANCH  56  57
ATOM     57  O   UNL     1       8.058   1.054  -1.488  0.00  0.00    -0.376 OA
ATOM     58  C   UNL     1       8.667   0.651  -2.699  0.00  0.00    +0.194 C 
ENDBRANCH  56  57
BRANCH  51  59
ATOM     59  O   UNL     1       8.488  -0.216   0.988  0.00  0.00    -0.458 OA
BRANCH  59  60
ATOM     60  C   UNL     1       9.489   0.754   1.136  0.00  0.00    +0.318 C 
ATOM     61  O   UNL     1       9.206   1.977   1.017  0.00  0.00    -0.250 OA
BRANCH  60  62
ATOM     62  C   UNL     1      10.932   0.321   1.329  0.00  0.00    +0.111 C 
ATOM     63  C   UNL     1      10.978  -1.060   2.022  0.00  0.00    +0.027 C 
BRANCH  62  64
ATOM     64  C   UNL     1      11.581   0.226  -0.073  0.00  0.00    +0.176 C 
BRANCH  64  65
ATOM     65  O   UNL     1      12.907  -0.228   0.002  0.00  0.00    -0.394 OA
ATOM     66  H   UNL     1      13.486   0.575   0.067  0.00  0.00    +0.209 HD
ENDBRANCH  64  65
ENDBRANCH  62  64
BRANCH  62  67
ATOM     67  C   UNL     1      11.688   1.357   2.201  0.00  0.00    +0.176 C 
BRANCH  67  68
ATOM     68  O   UNL     1      11.058   1.505   3.445  0.00  0.00    -0.394 OA
ATOM     69  H   UNL     1      11.620   2.137   3.966  0.00  0.00    +0.209 HD
ENDBRANCH  67  68
ENDBRANCH  62  67
ENDBRANCH  60  62
ENDBRANCH  59  60
ENDBRANCH  51  59
ENDBRANCH  50  54
ENDBRANCH  48  50
ENDBRANCH   1  48
BRANCH  10  70
ATOM     70  O   UNL     1       0.614   5.844   1.872  0.00  0.00    -0.384 OA
ATOM     71  H   UNL     1       0.774   6.285   2.748  0.00  0.00    +0.210 HD
ENDBRANCH  10  70
BRANCH  11  72
ATOM     72  O   UNL     1      -1.587   7.226   0.543  0.00  0.00    -0.369 OA
ATOM     73  C   UNL     1      -1.647   8.630   0.694  0.00  0.00    +0.195 C 
ENDBRANCH  11  72
BRANCH  26  74
ATOM     74  O   UNL     1      -7.529  -4.483   1.816  0.00  0.00    -0.375 OA
ATOM     75  C   UNL     1      -6.832  -5.179   2.833  0.00  0.00    +0.194 C 
ENDBRANCH  26  74
BRANCH  33  76
ATOM     76  O   UNL     1      -3.650  -2.700  -2.187  0.00  0.00    -0.358 OA
ATOM     77  H   UNL     1      -4.074  -2.359  -1.354  0.00  0.00    +0.213 HD
ENDBRANCH  33  76
TORSDOF 15
