REMARK  Name = 
REMARK  11 active torsions:
REMARK  status: ('A' for Active; 'I' for Inactive)
REMARK    1  A    between atoms: C_7  and  C_8
REMARK    2  A    between atoms: C_10  and  O_11
REMARK    3  A    between atoms: O_11  and  C_12
REMARK    4  A    between atoms: C_13  and  O_14
REMARK    5  A    between atoms: C_15  and  O_16
REMARK    6  A    between atoms: O_16  and  C_17
REMARK    7  A    between atoms: C_28  and  O_29
REMARK    8  A    between atoms: O_29  and  C_30
REMARK    9  A    between atoms: C_35  and  C_42
REMARK   10  A    between atoms: C_38  and  O_39
REMARK   11  A    between atoms: C_40  and  O_41
REMARK                            x       y       z     vdW  Elec       q    Type
REMARK                         _______ _______ _______ _____ _____    ______ ____
ROOT
ATOM      1  C   UNL     1      -1.115   1.055  -0.106  0.00  0.00    +0.075 C 
ATOM      2  C   UNL     1      -0.475   2.452  -0.038  0.00  0.00    +0.239 C 
ATOM      3  O   UNL     1      -1.221   3.201  -0.991  0.00  0.00    -0.464 OA
ATOM      4  C   UNL     1      -1.898   2.353  -1.853  0.00  0.00    +0.312 C 
ATOM      5  O   UNL     1      -2.561   2.754  -2.843  0.00  0.00    -0.250 OA
ATOM      6  C   UNL     1      -1.591   0.937  -1.550  0.00  0.00    +0.118 C 
ATOM      7  C   UNL     1      -2.666  -0.160  -1.670  0.00  0.00    +0.064 C 
ATOM      8  C   UNL     1      -2.126  -1.447  -1.043  0.00  0.00    -0.030 A 
ATOM      9  C   UNL     1      -2.765  -2.664  -1.365  0.00  0.00    +0.054 A 
ATOM     10  C   UNL     1      -2.348  -3.819  -0.716  0.00  0.00    +0.167 A 
ATOM     11  C   UNL     1      -1.361  -3.810   0.210  0.00  0.00    +0.167 A 
ATOM     12  O   UNL     1      -1.169  -5.091   0.692  0.00  0.00    -0.453 OA
ATOM     13  C   UNL     1      -2.093  -5.959   0.021  0.00  0.00    +0.466 C 
ATOM     14  O   UNL     1      -2.828  -5.105  -0.866  0.00  0.00    -0.453 OA
ATOM     15  C   UNL     1      -0.695  -2.646   0.569  0.00  0.00    +0.056 A 
ATOM     16  C   UNL     1      -1.067  -1.437  -0.059  0.00  0.00    -0.011 A 
ATOM     17  C   UNL     1      -0.274  -0.172   0.269  0.00  0.00    +0.159 C 
ENDROOT
BRANCH   7  18
ATOM     18  C   UNL     1      -4.022   0.236  -1.085  0.00  0.00    -0.032 A 
ATOM     19  C   UNL     1      -4.941   0.926  -1.890  0.00  0.00    +0.054 A 
ATOM     20  C   UNL     1      -6.203   1.298  -1.391  0.00  0.00    +0.165 A 
ATOM     21  C   UNL     1      -6.559   0.952  -0.080  0.00  0.00    +0.201 A 
ATOM     22  C   UNL     1      -5.658   0.255   0.741  0.00  0.00    +0.165 A 
ATOM     23  C   UNL     1      -4.387  -0.084   0.238  0.00  0.00    +0.054 A 
BRANCH  20  24
ATOM     24  O   UNL     1      -7.129   2.013  -2.164  0.00  0.00    -0.491 OA
ATOM     25  C   UNL     1      -6.895   2.456  -3.498  0.00  0.00    +0.277 C 
ENDBRANCH  20  24
BRANCH  21  26
ATOM     26  O   UNL     1      -7.823   1.310   0.394  0.00  0.00    -0.501 OA
ATOM     27  H   UNL     1      -8.134   1.088   1.330  0.00  0.00    +0.292 HD
ENDBRANCH  21  26
BRANCH  22  28
ATOM     28  O   UNL     1      -6.058  -0.095   2.041  0.00  0.00    -0.491 OA
ATOM     29  C   UNL     1      -5.255  -0.830   2.960  0.00  0.00    +0.277 C 
ENDBRANCH  22  28
ENDBRANCH   7  18
BRANCH  17  30
ATOM     30  O   UNL     1       0.924  -0.178  -0.491  0.00  0.00    -0.340 OA
BRANCH  30  31
ATOM     31  C   UNL     1       2.064  -0.447   0.303  0.00  0.00    +0.282 C 
ATOM     32  O   UNL     1       2.592   0.788   0.770  0.00  0.00    -0.340 OA
ATOM     33  C   UNL     1       3.704   0.553   1.613  0.00  0.00    +0.178 C 
ATOM     34  C   UNL     1       4.215   1.862   2.196  0.00  0.00    +0.197 C 
ATOM     35  O   UNL     1       5.363   1.635   2.994  0.00  0.00    -0.344 OA
ATOM     36  C   UNL     1       6.396   0.968   2.272  0.00  0.00    +0.289 C 
ATOM     37  O   UNL     1       5.967  -0.255   1.680  0.00  0.00    -0.338 OA
ATOM     38  C   UNL     1       4.864  -0.049   0.821  0.00  0.00    +0.184 C 
ATOM     39  C   UNL     1       4.407  -1.385   0.214  0.00  0.00    +0.179 C 
ATOM     40  C   UNL     1       3.095  -1.181  -0.576  0.00  0.00    +0.201 C 
BRANCH  36  41
ATOM     41  C   UNL     1       7.116   1.871   1.299  0.00  0.00    +0.045 A 
ATOM     42  C   UNL     1       7.996   1.439   0.312  0.00  0.00    +0.016 A 
ATOM     43  C   UNL     1       8.664   2.488  -0.331  0.00  0.00    +0.008 A 
ATOM     44  C   UNL     1       8.333   3.745   0.159  0.00  0.00    +0.045 A 
ATOM     45  S   UNL     1       7.224   3.548   1.406  0.00  0.00    -0.097 S 
ENDBRANCH  36  41
BRANCH  39  46
ATOM     46  O   UNL     1       5.414  -1.933  -0.600  0.00  0.00    -0.386 OA
ATOM     47  H   UNL     1       5.566  -1.307  -1.356  0.00  0.00    +0.210 HD
ENDBRANCH  39  46
BRANCH  40  48
ATOM     48  O   UNL     1       2.571  -2.423  -0.965  0.00  0.00    -0.384 OA
ATOM     49  H   UNL     1       3.099  -2.722  -1.752  0.00  0.00    +0.210 HD
ENDBRANCH  40  48
ENDBRANCH  30  31
ENDBRANCH  17  30
TORSDOF 9
