REMARK  Name = 
REMARK  4 active torsions:
REMARK  status: ('A' for Active; 'I' for Inactive)
REMARK    1  A    between atoms: C_1  and  N_2
REMARK    2  A    between atoms: C_4  and  O_5
REMARK    3  A    between atoms: C_4  and  N_6
REMARK    4  A    between atoms: N_6  and  C_7
REMARK                            x       y       z     vdW  Elec       q    Type
REMARK                         _______ _______ _______ _____ _____    ______ ____
ROOT
ATOM      1  C   UNL     1      -1.911  -0.615  -2.831  0.00  0.00    +0.158 C 
ATOM      2  N   UNL     1      -1.702   0.029  -1.534  0.00  0.00    -0.197 N 
ATOM      3  C   UNL     1      -0.794  -0.530  -0.558  0.00  0.00    +0.156 C 
ATOM      4  C   UNL     1       0.505  -0.703  -0.893  0.00  0.00    +0.210 C 
ATOM      5  C   UNL     1      -1.302  -0.780   0.830  0.00  0.00    +0.222 C 
ATOM      6  O   UNL     1      -0.731  -1.603   1.593  0.00  0.00    -0.284 OA
ATOM      7  C   UNL     1      -2.487  -0.062   1.334  0.00  0.00    +0.087 A 
ATOM      8  C   UNL     1      -3.220   0.871   0.625  0.00  0.00    +0.127 A 
ATOM      9  C   UNL     1      -4.283   1.431   1.342  0.00  0.00    +0.037 A 
ATOM     10  C   UNL     1      -4.386   0.934   2.636  0.00  0.00    +0.048 A 
ATOM     11  S   UNL     1      -3.155  -0.194   2.873  0.00  0.00    -0.091 S 
ATOM     12  S   UNL     1      -2.826   1.248  -1.028  0.00  0.00    +0.076 S 
ATOM     13  O   UNL     1      -2.191   2.606  -1.125  0.00  0.00    -0.150 OA
ATOM     14  O   UNL     1      -4.071   1.194  -1.869  0.00  0.00    -0.150 OA
ENDROOT
BRANCH   4  15
ATOM     15  O   UNL     1       0.950  -0.273  -2.144  0.00  0.00    -0.494 OA
ATOM     16  H   UNL     1       1.908  -0.417  -2.440  0.00  0.00    +0.294 HD
ENDBRANCH   4  15
BRANCH   4  17
ATOM     17  N   UNL     1       1.453  -1.294   0.008  0.00  0.00    -0.269 N 
ATOM     18  H   UNL     1       1.261  -2.250   0.383  0.00  0.00    +0.156 HD
BRANCH  17  19
ATOM     19  C   UNL     1       2.708  -0.669   0.310  0.00  0.00    +0.125 A 
ATOM     20  C   UNL     1       3.679  -1.361   1.049  0.00  0.00    +0.044 A 
ATOM     21  C   UNL     1       4.890  -0.734   1.349  0.00  0.00    +0.005 A 
ATOM     22  C   UNL     1       5.122   0.573   0.916  0.00  0.00    +0.020 A 
ATOM     23  C   UNL     1       4.132   1.236   0.188  0.00  0.00    +0.113 A 
ATOM     24  N   UNL     1       2.959   0.609  -0.094  0.00  0.00    -0.240 NA
ENDBRANCH  17  19
ENDBRANCH   4  17
TORSDOF 3
