REMARK  Name = 
REMARK  8 active torsions:
REMARK  status: ('A' for Active; 'I' for Inactive)
REMARK    1  A    between atoms: C_1  and  C_2
REMARK    2  A    between atoms: C_2  and  C_3
REMARK    3  A    between atoms: C_2  and  O_14
REMARK    4  A    between atoms: C_3  and  N_4
REMARK    5  A    between atoms: O_14  and  C_15
REMARK    6  A    between atoms: C_15  and  P_16
REMARK    7  A    between atoms: P_16  and  O_17
REMARK    8  A    between atoms: P_16  and  O_18
REMARK                            x       y       z     vdW  Elec       q    Type
REMARK                         _______ _______ _______ _____ _____    ______ ____
ROOT
ATOM      1  N   UNL     1       1.244  -0.207  -0.303  0.00  0.00    -0.312 N 
ATOM      2  C   UNL     1       2.004  -1.185   0.254  0.00  0.00    +0.201 A 
ATOM      3  N   UNL     1       3.239  -0.756   0.636  0.00  0.00    -0.231 NA
ATOM      4  C   UNL     1       3.220   0.547   0.294  0.00  0.00    +0.147 A 
ATOM      5  C   UNL     1       2.032   0.874  -0.264  0.00  0.00    +0.165 A 
ATOM      6  N   UNL     1       1.740   2.129  -0.682  0.00  0.00    -0.216 NA
ATOM      7  C   UNL     1       2.698   3.092  -0.532  0.00  0.00    +0.225 A 
ATOM      8  N   UNL     1       3.913   2.785   0.029  0.00  0.00    -0.219 NA
ATOM      9  C   UNL     1       4.202   1.518   0.452  0.00  0.00    +0.147 A 
ATOM     10  N   UNL     1       5.469   1.219   1.038  0.00  0.00    -0.341 N 
ATOM     11  H   UNL     1       6.187   1.969   1.146  0.00  0.00    +0.144 HD
ATOM     12  H   UNL     1       5.696   0.253   1.365  0.00  0.00    +0.144 HD
ENDROOT
BRANCH   1  13
ATOM     13  C   UNL     1      -0.136  -0.311  -0.777  0.00  0.00    +0.156 C 
BRANCH  13  15
ATOM     14  C   UNL     1      -1.110   1.012   1.147  0.00  0.00    +0.040 C 
ATOM     15  C   UNL     1      -1.129  -0.323   0.400  0.00  0.00    +0.136 C 
BRANCH  15  16
ATOM     16  O   UNL     1      -2.439  -0.530  -0.100  0.00  0.00    -0.363 OA
BRANCH  16  17
ATOM     17  C   UNL     1      -2.818  -1.883   0.030  0.00  0.00    +0.286 C 
BRANCH  17  18
ATOM     18  P   UNL     1      -4.416  -2.130  -0.795  0.00  0.00    +0.353 P 
ATOM     19  O   UNL     1      -4.835  -3.574  -0.647  0.00  0.00    -0.256 OA
BRANCH  18  20
ATOM     20  O   UNL     1      -5.586  -1.134  -0.085  0.00  0.00    -0.323 OA
ATOM     21  H   UNL     1      -5.271  -0.210  -0.254  0.00  0.00    +0.220 HD
ENDBRANCH  18  20
BRANCH  18  22
ATOM     22  O   UNL     1      -4.272  -1.757  -2.440  0.00  0.00    -0.323 OA
ATOM     23  H   UNL     1      -4.016  -0.800  -2.463  0.00  0.00    +0.220 HD
ENDBRANCH  18  22
ENDBRANCH  17  18
ENDBRANCH  16  17
ENDBRANCH  15  16
ENDBRANCH  13  15
ENDBRANCH   1  13
TORSDOF 7
