REMARK  Name = 
REMARK  5 active torsions:
REMARK  status: ('A' for Active; 'I' for Inactive)
REMARK    1  A    between atoms: C_1  and  O_2
REMARK    2  A    between atoms: O_2  and  C_3
REMARK    3  A    between atoms: C_4  and  O_5
REMARK    4  A    between atoms: O_5  and  C_6
REMARK    5  A    between atoms: C_22  and  C_24
REMARK                            x       y       z     vdW  Elec       q    Type
REMARK                         _______ _______ _______ _____ _____    ______ ____
ROOT
ATOM      1  C   UNL     1      -4.820   1.494  -0.072  0.00  0.00    +0.164 A 
ATOM      2  C   UNL     1      -5.512   0.436  -0.676  0.00  0.00    +0.162 A 
ATOM      3  C   UNL     1      -4.817  -0.730  -1.058  0.00  0.00    +0.062 A 
ATOM      4  C   UNL     1      -3.427  -0.847  -0.842  0.00  0.00    +0.044 A 
ATOM      5  C   UNL     1      -2.658  -1.986  -1.205  0.00  0.00    +0.129 A 
ATOM      6  N   UNL     1      -3.192  -3.118  -1.904  0.00  0.00    -0.343 N 
ATOM      7  N   UNL     1      -1.335  -2.013  -0.898  0.00  0.00    -0.199 NA
ATOM      8  C   UNL     1      -0.710  -0.982  -0.272  0.00  0.00    +0.220 A 
ATOM      9  N   UNL     1      -1.425   0.124   0.060  0.00  0.00    -0.214 NA
ATOM     10  C   UNL     1      -2.751   0.219  -0.206  0.00  0.00    +0.082 A 
ATOM     11  C   UNL     1      -3.439   1.377   0.164  0.00  0.00    +0.078 A 
ATOM     12  N   UNL     1       0.695  -1.067   0.039  0.00  0.00    -0.297 N 
ATOM     13  C   UNL     1       1.411   0.083   0.617  0.00  0.00    +0.127 C 
ATOM     14  C   UNL     1       2.827   0.187   0.035  0.00  0.00    +0.127 C 
ATOM     15  N   UNL     1       3.502  -1.121  -0.028  0.00  0.00    -0.296 N 
ATOM     16  C   UNL     1       2.800  -2.312   0.470  0.00  0.00    +0.127 C 
ATOM     17  C   UNL     1       1.383  -2.360  -0.106  0.00  0.00    +0.127 C 
ATOM     18  C   UNL     1       4.820  -1.252  -0.612  0.00  0.00    +0.245 C 
ATOM     19  O   UNL     1       5.166  -2.352  -1.124  0.00  0.00    -0.273 OA
ATOM     20  H   UNL     1      -4.159  -3.132  -2.292  0.00  0.00    +0.144 HD
ATOM     21  H   UNL     1      -4.138  -3.170  -2.338  0.00  0.00    +0.144 HD
ENDROOT
BRANCH  18  22
ATOM     22  C   UNL     1       5.832  -0.130  -0.596  0.00  0.00    +0.204 C 
ATOM     23  C   UNL     1       6.287   0.207   0.814  0.00  0.00    +0.043 C 
ATOM     24  C   UNL     1       6.623   1.666   0.711  0.00  0.00    +0.031 C 
ATOM     25  C   UNL     1       5.826   2.140  -0.494  0.00  0.00    +0.161 C 
ATOM     26  O   UNL     1       5.319   1.032  -1.205  0.00  0.00    -0.367 OA
ENDBRANCH  18  22
BRANCH   1  28
ATOM     27  C   UNL     1      -4.969   3.805   0.883  0.00  0.00    +0.277 C 
ATOM     28  O   UNL     1      -5.541   2.645   0.284  0.00  0.00    -0.491 OA
ENDBRANCH   1  28
BRANCH   2  29
ATOM     29  O   UNL     1      -6.895   0.582  -0.878  0.00  0.00    -0.491 OA
ATOM     30  C   UNL     1      -7.738  -0.402  -1.470  0.00  0.00    +0.277 C 
ENDBRANCH   2  29
TORSDOF 3
