REMARK  Name = 
REMARK  10 active torsions:
REMARK  status: ('A' for Active; 'I' for Inactive)
REMARK    1  A    between atoms: C_1  and  C_2
REMARK    2  A    between atoms: C_2  and  C_3
REMARK    3  A    between atoms: C_2  and  C_4
REMARK    4  A    between atoms: C_2  and  N_5
REMARK    5  A    between atoms: N_5  and  C_6
REMARK    6  A    between atoms: C_6  and  C_7
REMARK    7  A    between atoms: C_7  and  O_8
REMARK    8  A    between atoms: C_7  and  C_9
REMARK    9  A    between atoms: C_11  and  O_12
REMARK   10  A    between atoms: C_14  and  O_15
REMARK                            x       y       z     vdW  Elec       q    Type
REMARK                         _______ _______ _______ _____ _____    ______ ____
ROOT
ATOM      1  C   UNL     1       0.366  -1.687  -1.389  0.00  0.00    +0.158 C 
ENDROOT
BRANCH   1   2
ATOM      2  C   UNL     1       1.315  -0.525  -1.161  0.00  0.00    -0.011 A 
ATOM      3  C   UNL     1       2.077  -0.419   0.019  0.00  0.00    +0.051 A 
ATOM      4  C   UNL     1       2.896   0.698   0.238  0.00  0.00    +0.121 A 
ATOM      5  C   UNL     1       2.953   1.717  -0.716  0.00  0.00    +0.090 A 
ATOM      6  C   UNL     1       2.187   1.632  -1.885  0.00  0.00    +0.121 A 
ATOM      7  C   UNL     1       1.370   0.518  -2.102  0.00  0.00    +0.051 A 
BRANCH   4   8
ATOM      8  O   UNL     1       3.652   0.805   1.403  0.00  0.00    -0.507 OA
ATOM      9  H   UNL     1       3.632   0.086   2.116  0.00  0.00    +0.292 HD
ENDBRANCH   4   8
BRANCH   6  10
ATOM     10  O   UNL     1       2.228   2.649  -2.836  0.00  0.00    -0.507 OA
ATOM     11  H   UNL     1       2.808   3.470  -2.708  0.00  0.00    +0.292 HD
ENDBRANCH   6  10
ENDBRANCH   1   2
BRANCH   1  12
ATOM     12  O   UNL     1       0.917  -2.906  -0.949  0.00  0.00    -0.386 OA
ATOM     13  H   UNL     1       0.813  -2.968   0.034  0.00  0.00    +0.210 HD
ENDBRANCH   1  12
BRANCH   1  14
ATOM     14  C   UNL     1      -1.020  -1.410  -0.774  0.00  0.00    +0.117 C 
BRANCH  14  15
ATOM     15  N   UNL     1      -0.907  -1.145   0.674  0.00  0.00    -0.309 NA
ATOM     16  H   UNL     1      -1.098  -2.044   1.179  0.00  0.00    +0.123 HD
BRANCH  15  18
ATOM     17  C   UNL     1      -1.369   1.301   0.675  0.00  0.00    +0.027 C 
ATOM     18  C   UNL     1      -1.796  -0.085   1.209  0.00  0.00    +0.011 C 
ATOM     19  C   UNL     1      -1.640  -0.064   2.744  0.00  0.00    +0.027 C 
ATOM     20  C   UNL     1      -3.279  -0.360   0.872  0.00  0.00    +0.027 C 
ENDBRANCH  15  18
ENDBRANCH  14  15
ENDBRANCH   1  14
TORSDOF 7
