REMARK  Name = 
REMARK  10 active torsions:
REMARK  status: ('A' for Active; 'I' for Inactive)
REMARK    1  A    between atoms: C_1  and  N_2
REMARK    2  A    between atoms: N_2  and  C_3
REMARK    3  A    between atoms: N_2  and  C_12
REMARK    4  A    between atoms: C_3  and  C_4
REMARK    5  A    between atoms: C_5  and  C_6
REMARK    6  A    between atoms: C_7  and  C_8
REMARK    7  A    between atoms: C_8  and  C_9
REMARK    8  A    between atoms: C_8  and  C_10
REMARK    9  A    between atoms: C_8  and  C_11
REMARK   10  A    between atoms: C_12  and  C_13
REMARK                            x       y       z     vdW  Elec       q    Type
REMARK                         _______ _______ _______ _____ _____    ______ ____
ROOT
ATOM      1  C   UNL     1      -1.275   1.593   1.650  0.00  0.00    +0.105 C 
ATOM      2  N   UNL     1      -1.421   1.328   0.207  0.00  0.00    -0.298 NA
ENDROOT
BRANCH   2   3
ATOM      3  C   UNL     1      -0.434   2.086  -0.594  0.00  0.00    +0.112 C 
BRANCH   3   4
ATOM      4  C   UNL     1       0.994   1.711  -0.286  0.00  0.00    -0.003 C 
ATOM      5  C   UNL     1       1.654   0.807  -1.011  0.00  0.00    +0.057 C 
BRANCH   5   6
ATOM      6  C   UNL     1       3.005   0.447  -0.678  0.00  0.00    -0.074 C 
ATOM      7  C   UNL     1       4.137   0.144  -0.396  0.00  0.00    -0.092 C 
BRANCH   7   8
ATOM      8  C   UNL     1       5.522  -0.226  -0.049  0.00  0.00    +0.024 C 
ATOM      9  C   UNL     1       5.885  -1.538  -0.764  0.00  0.00    +0.024 C 
ATOM     10  C   UNL     1       5.623  -0.414   1.473  0.00  0.00    +0.024 C 
ATOM     11  C   UNL     1       6.469   0.897  -0.503  0.00  0.00    +0.024 C 
ENDBRANCH   7   8
ENDBRANCH   5   6
ENDBRANCH   3   4
ENDBRANCH   2   3
BRANCH   2  12
ATOM     12  C   UNL     1      -1.389  -0.120  -0.089  0.00  0.00    +0.120 C 
BRANCH  12  13
ATOM     13  C   UNL     1      -2.687  -0.778   0.328  0.00  0.00    -0.026 A 
ATOM     14  C   UNL     1      -2.670  -1.652   1.429  0.00  0.00    +0.005 A 
ATOM     15  C   UNL     1      -3.838  -2.275   1.866  0.00  0.00    +0.001 A 
ATOM     16  C   UNL     1      -5.047  -2.037   1.217  0.00  0.00    +0.008 A 
ATOM     17  C   UNL     1      -5.101  -1.167   0.120  0.00  0.00    -0.018 A 
ATOM     18  C   UNL     1      -6.325  -0.928  -0.524  0.00  0.00    +0.008 A 
ATOM     19  C   UNL     1      -6.389  -0.060  -1.614  0.00  0.00    +0.001 A 
ATOM     20  C   UNL     1      -5.235   0.578  -2.070  0.00  0.00    +0.001 A 
ATOM     21  C   UNL     1      -4.009   0.351  -1.441  0.00  0.00    +0.009 A 
ATOM     22  C   UNL     1      -3.918  -0.524  -0.337  0.00  0.00    -0.013 A 
ENDBRANCH  12  13
ENDBRANCH   2  12
TORSDOF 6
