REMARK  Name = 
REMARK  10 active torsions:
REMARK  status: ('A' for Active; 'I' for Inactive)
REMARK    1  A    between atoms: C_1  and  C_2
REMARK    2  A    between atoms: C_2  and  C_3
REMARK    3  A    between atoms: C_2  and  N_4
REMARK    4  A    between atoms: N_7  and  C_10
REMARK    5  A    between atoms: C_13  and  O_14
REMARK    6  A    between atoms: O_14  and  C_15
REMARK    7  A    between atoms: C_15  and  C_16
REMARK    8  A    between atoms: C_19  and  C_20
REMARK    9  A    between atoms: C_19  and  C_27
REMARK   10  A    between atoms: C_20  and  N_21
REMARK                            x       y       z     vdW  Elec       q    Type
REMARK                         _______ _______ _______ _____ _____    ______ ____
ROOT
ATOM      1  C   UNL     1       2.881  -1.003   1.370  0.00  0.00    +0.185 C 
ATOM      2  C   UNL     1       3.263  -0.274   2.625  0.00  0.00    +0.198 C 
ATOM      3  O   UNL     1       4.458   0.378   2.337  0.00  0.00    -0.341 OA
ATOM      4  C   UNL     1       4.966  -0.215   1.154  0.00  0.00    +0.219 C 
ATOM      5  O   UNL     1       4.073  -1.204   0.685  0.00  0.00    -0.334 OA
ENDROOT
BRANCH   4   6
ATOM      6  C   UNL     1       5.186   0.883   0.103  0.00  0.00    +0.031 A 
ATOM      7  C   UNL     1       5.019   0.688  -1.299  0.00  0.00    +0.051 A 
ATOM      8 CL   UNL     1       4.523  -0.838  -2.030  0.00  0.00    -0.083 Cl
ATOM      9  C   UNL     1       5.277   1.741  -2.187  0.00  0.00    +0.040 A 
ATOM     10  C   UNL     1       5.715   2.979  -1.718  0.00  0.00    +0.042 A 
ATOM     11 CL   UNL     1       6.038   4.283  -2.847  0.00  0.00    -0.083 Cl
ATOM     12  C   UNL     1       5.911   3.174  -0.352  0.00  0.00    +0.020 A 
ATOM     13  C   UNL     1       5.658   2.138   0.547  0.00  0.00    +0.012 A 
ENDBRANCH   4   6
BRANCH   1  14
ATOM     14  C   UNL     1       2.203  -2.352   1.646  0.00  0.00    +0.263 C 
BRANCH  14  15
ATOM     15  O   UNL     1       0.984  -2.173   2.369  0.00  0.00    -0.489 OA
BRANCH  15  19
ATOM     16  C   UNL     1      -2.738  -0.817   0.835  0.00  0.00    +0.030 A 
ATOM     17  C   UNL     1      -2.536  -1.066   2.213  0.00  0.00    +0.027 A 
ATOM     18  C   UNL     1      -1.301  -1.509   2.693  0.00  0.00    +0.047 A 
ATOM     19  C   UNL     1      -0.227  -1.713   1.826  0.00  0.00    +0.121 A 
ATOM     20  C   UNL     1      -0.403  -1.459   0.457  0.00  0.00    +0.047 A 
ATOM     21  C   UNL     1      -1.635  -1.014  -0.030  0.00  0.00    +0.027 A 
BRANCH  16  25
ATOM     22  N   UNL     1      -6.240   1.113  -0.579  0.00  0.00    -0.297 NA
ATOM     23  C   UNL     1      -6.449   0.347   0.656  0.00  0.00    +0.103 C 
ATOM     24  C   UNL     1      -5.107  -0.031   1.290  0.00  0.00    +0.120 C 
ATOM     25  N   UNL     1      -4.034  -0.367   0.325  0.00  0.00    -0.327 N 
ATOM     26  C   UNL     1      -4.179  -0.104  -1.125  0.00  0.00    +0.120 C 
ATOM     27  C   UNL     1      -5.603   0.227  -1.565  0.00  0.00    +0.103 C 
BRANCH  22  29
ATOM     28  C   UNL     1      -8.486   0.796  -1.733  0.00  0.00    +0.024 C 
ATOM     29  C   UNL     1      -7.492   1.761  -1.057  0.00  0.00    +0.051 C 
ATOM     30  C   UNL     1      -7.165   2.939  -1.982  0.00  0.00    +0.024 C 
ENDBRANCH  22  29
ENDBRANCH  16  25
ENDBRANCH  15  19
ENDBRANCH  14  15
ENDBRANCH   1  14
BRANCH   4  31
ATOM     31  C   UNL     1       6.309  -0.885   1.506  0.00  0.00    +0.215 C 
BRANCH  31  32
ATOM     32  N   UNL     1       6.890  -1.575   0.356  0.00  0.00    -0.246 N 
ATOM     33  C   UNL     1       7.810  -1.093  -0.496  0.00  0.00    +0.219 A 
ATOM     34  N   UNL     1       8.107  -1.996  -1.451  0.00  0.00    -0.223 NA
ATOM     35  C   UNL     1       7.314  -3.040  -1.121  0.00  0.00    +0.244 A 
ATOM     36  N   UNL     1       6.567  -2.796  -0.026  0.00  0.00    -0.158 NA
ENDBRANCH  31  32
ENDBRANCH   4  31
TORSDOF 8
