REMARK  Name = 
REMARK  14 active torsions:
REMARK  status: ('A' for Active; 'I' for Inactive)
REMARK    1  A    between atoms: C_1  and  C_2
REMARK    2  A    between atoms: C_2  and  C_3
REMARK    3  A    between atoms: C_2  and  C_4
REMARK    4  A    between atoms: C_2  and  C_5
REMARK    5  A    between atoms: C_8  and  C_11
REMARK    6  A    between atoms: C_11  and  O_12
REMARK    7  A    between atoms: C_11  and  C_13
REMARK    8  A    between atoms: C_13  and  C_14
REMARK    9  A    between atoms: C_14  and  C_15
REMARK   10  A    between atoms: C_15  and  N_16
REMARK   11  A    between atoms: C_19  and  C_22
REMARK   12  A    between atoms: C_22  and  O_23
REMARK   13  A    between atoms: C_22  and  C_24
REMARK   14  A    between atoms: C_22  and  C_30
REMARK                            x       y       z     vdW  Elec       q    Type
REMARK                         _______ _______ _______ _____ _____    ______ ____
ROOT
ATOM      1  N   UNL     1      -0.581   0.079   0.866  0.00  0.00    -0.302 NA
ATOM      2  C   UNL     1      -1.138  -0.873  -0.134  0.00  0.00    +0.085 C 
ATOM      3  C   UNL     1      -2.594  -0.586  -0.557  0.00  0.00    +0.022 C 
ATOM      4  C   UNL     1      -3.447  -0.127   0.650  0.00  0.00    +0.032 C 
ATOM      5  C   UNL     1      -2.822   1.085   1.389  0.00  0.00    +0.022 C 
ATOM      6  C   UNL     1      -1.357   1.333   0.990  0.00  0.00    +0.085 C 
ENDROOT
BRANCH   1   7
ATOM      7  C   UNL     1      -0.261  -0.554   2.167  0.00  0.00    +0.084 C 
BRANCH   7   8
ATOM      8  C   UNL     1       0.902   0.153   2.889  0.00  0.00    +0.018 C 
BRANCH   8   9
ATOM      9  C   UNL     1       2.275  -0.060   2.219  0.00  0.00    +0.037 C 
BRANCH   9  10
ATOM     10  C   UNL     1       2.509   0.820   0.969  0.00  0.00    +0.145 C 
BRANCH  10  14
ATOM     11  C   UNL     1       6.480   0.103  -0.683  0.00  0.00    -0.042 A 
ATOM     12  C   UNL     1       6.316   0.768   0.555  0.00  0.00    +0.004 A 
ATOM     13  C   UNL     1       5.043   1.003   1.083  0.00  0.00    +0.006 A 
ATOM     14  C   UNL     1       3.893   0.587   0.394  0.00  0.00    -0.019 A 
ATOM     15  C   UNL     1       4.044  -0.081  -0.830  0.00  0.00    +0.006 A 
ATOM     16  C   UNL     1       5.314  -0.317  -1.360  0.00  0.00    +0.004 A 
BRANCH  11  18
ATOM     17  C   UNL     1       9.035   0.349  -0.438  0.00  0.00    +0.015 C 
ATOM     18  C   UNL     1       7.865  -0.180  -1.301  0.00  0.00    -0.013 C 
ATOM     19  C   UNL     1       8.054  -1.704  -1.463  0.00  0.00    +0.015 C 
ATOM     20  C   UNL     1       7.960   0.498  -2.685  0.00  0.00    +0.015 C 
ENDBRANCH  11  18
ENDBRANCH  10  14
BRANCH  10  21
ATOM     21  O   UNL     1       2.310   2.188   1.237  0.00  0.00    -0.387 OA
ATOM     22  H   UNL     1       2.814   2.420   2.059  0.00  0.00    +0.210 HD
ENDBRANCH  10  21
ENDBRANCH   9  10
ENDBRANCH   8   9
ENDBRANCH   7   8
ENDBRANCH   1   7
BRANCH   4  23
ATOM     23  C   UNL     1      -4.999   0.038   0.371  0.00  0.00    +0.119 C 
BRANCH  23  24
ATOM     24  C   UNL     1      -5.410   1.120  -0.654  0.00  0.00    -0.011 A 
ATOM     25  C   UNL     1      -4.523   2.051  -1.246  0.00  0.00    +0.007 A 
ATOM     26  C   UNL     1      -4.988   3.013  -2.148  0.00  0.00    +0.000 A 
ATOM     27  C   UNL     1      -6.343   3.085  -2.465  0.00  0.00    +0.000 A 
ATOM     28  C   UNL     1      -7.242   2.203  -1.870  0.00  0.00    +0.000 A 
ATOM     29  C   UNL     1      -6.784   1.240  -0.967  0.00  0.00    +0.007 A 
ENDBRANCH  23  24
BRANCH  23  30
ATOM     30  C   UNL     1      -5.552  -1.332  -0.077  0.00  0.00    -0.011 A 
ATOM     31  C   UNL     1      -5.603  -1.687  -1.446  0.00  0.00    +0.007 A 
ATOM     32  C   UNL     1      -6.072  -2.940  -1.846  0.00  0.00    +0.000 A 
ATOM     33  C   UNL     1      -6.482  -3.871  -0.892  0.00  0.00    +0.000 A 
ATOM     34  C   UNL     1      -6.413  -3.555   0.464  0.00  0.00    +0.000 A 
ATOM     35  C   UNL     1      -5.945  -2.302   0.872  0.00  0.00    +0.007 A 
ENDBRANCH  23  30
BRANCH  23  36
ATOM     36  O   UNL     1      -5.649   0.421   1.569  0.00  0.00    -0.379 OA
ATOM     37  H   UNL     1      -5.223  -0.024   2.346  0.00  0.00    +0.211 HD
ENDBRANCH  23  36
ENDBRANCH   4  23
TORSDOF 11
