REMARK  Name = 
REMARK  28 active torsions:
REMARK  status: ('A' for Active; 'I' for Inactive)
REMARK    1  A    between atoms: N_1  and  C_2
REMARK    2  A    between atoms: C_2  and  C_3
REMARK    3  A    between atoms: C_3  and  C_4
REMARK    4  A    between atoms: C_4  and  C_5
REMARK    5  A    between atoms: C_5  and  C_6
REMARK    6  A    between atoms: C_6  and  N_7
REMARK    7  A    between atoms: C_6  and  C_79
REMARK    8  A    between atoms: C_8  and  C_10
REMARK    9  A    between atoms: C_15  and  C_17
REMARK   10  A    between atoms: C_22  and  N_23
REMARK   11  A    between atoms: C_24  and  C_26
REMARK   12  A    between atoms: C_26  and  N_27
REMARK   13  A    between atoms: C_28  and  C_30
REMARK   14  A    between atoms: C_30  and  N_31
REMARK   15  A    between atoms: C_32  and  C_34
REMARK   16  A    between atoms: C_34  and  N_35
REMARK   17  A    between atoms: C_39  and  C_40
REMARK   18  A    between atoms: C_40  and  C_41
REMARK   19  A    between atoms: C_44  and  O_45
REMARK   20  A    between atoms: C_51  and  C_52
REMARK   21  A    between atoms: C_52  and  C_53
REMARK   22  A    between atoms: C_62  and  C_63
REMARK   23  A    between atoms: C_63  and  C_64
REMARK   24  A    between atoms: C_64  and  C_65
REMARK   25  A    between atoms: C_71  and  C_72
REMARK   26  A    between atoms: C_72  and  C_73
REMARK   27  A    between atoms: N_81  and  C_82
REMARK   28  A    between atoms: C_82  and  C_83
REMARK                            x       y       z     vdW  Elec       q    Type
REMARK                         _______ _______ _______ _____ _____    ______ ____
ROOT
ATOM      1  C   UNL     1       2.762   0.573  -0.604  0.00  0.00    +0.170 C 
ATOM      2  C   UNL     1       1.622   1.348  -1.294  0.00  0.00    +0.112 C 
ATOM      3  S   UNL     1       0.957   2.717  -0.275  0.00  0.00    -0.091 S 
ATOM      4  S   UNL     1      -0.751   1.635   0.416  0.00  0.00    -0.091 S 
ATOM      5  C   UNL     1      -1.805   2.079  -1.018  0.00  0.00    +0.112 C 
ATOM      6  C   UNL     1      -3.079   2.852  -0.623  0.00  0.00    +0.169 C 
ATOM      7  C   UNL     1      -4.078   2.079   0.215  0.00  0.00    +0.235 C 
ATOM      8  O   UNL     1      -4.974   2.711   0.846  0.00  0.00    -0.274 OA
ATOM      9  N   UNL     1      -4.113   0.641   0.176  0.00  0.00    -0.302 N 
ATOM     10  C   UNL     1      -5.354  -0.144   0.268  0.00  0.00    +0.163 C 
ATOM     11  C   UNL     1      -5.053  -1.592  -0.041  0.00  0.00    +0.234 C 
ATOM     12  O   UNL     1      -4.235  -1.869  -0.962  0.00  0.00    -0.274 OA
ATOM     13  N   UNL     1      -5.712  -2.644   0.688  0.00  0.00    -0.302 N 
ATOM     14  C   UNL     1      -5.444  -4.082   0.519  0.00  0.00    +0.163 C 
ATOM     15  C   UNL     1      -4.153  -4.492   1.196  0.00  0.00    +0.234 C 
ATOM     16  O   UNL     1      -4.076  -5.631   1.724  0.00  0.00    -0.274 OA
ATOM     17  N   UNL     1      -2.993  -3.632   1.196  0.00  0.00    -0.302 N 
ATOM     18  C   UNL     1      -1.616  -4.145   1.281  0.00  0.00    +0.159 C 
ATOM     19  C   UNL     1      -0.611  -3.009   1.265  0.00  0.00    +0.234 C 
ATOM     20  O   UNL     1      -0.868  -1.944   0.647  0.00  0.00    -0.274 OA
ATOM     21  N   UNL     1       0.663  -3.172   1.905  0.00  0.00    -0.302 N 
ATOM     22  C   UNL     1       1.604  -2.054   2.074  0.00  0.00    +0.168 C 
ATOM     23  C   UNL     1       2.023  -1.467   0.743  0.00  0.00    +0.234 C 
ATOM     24  O   UNL     1       2.157  -2.218  -0.262  0.00  0.00    -0.274 OA
ATOM     25  N   UNL     1       2.295  -0.053   0.637  0.00  0.00    -0.302 N 
ATOM     26  H   UNL     1      -3.196   0.141   0.284  0.00  0.00    +0.150 HD
ATOM     27  H   UNL     1      -6.458  -2.377   1.372  0.00  0.00    +0.150 HD
ATOM     28  H   UNL     1      -3.146  -2.609   1.275  0.00  0.00    +0.150 HD
ATOM     29  H   UNL     1       0.836  -4.064   2.415  0.00  0.00    +0.150 HD
ATOM     30  H   UNL     1       2.050   0.566   1.443  0.00  0.00    +0.150 HD
ENDROOT
BRANCH   1  36
ATOM     31  C   UNL     1       5.941   0.089  -1.165  0.00  0.00    +0.162 C 
ATOM     32  C   UNL     1       6.947   0.290  -2.313  0.00  0.00    +0.033 C 
ATOM     33  C   UNL     1       6.462   1.527  -3.081  0.00  0.00    +0.021 C 
ATOM     34  C   UNL     1       5.550   2.282  -2.121  0.00  0.00    +0.109 C 
ATOM     35  N   UNL     1       5.157   1.312  -1.119  0.00  0.00    -0.288 N 
ATOM     36  C   UNL     1       3.958   1.460  -0.342  0.00  0.00    +0.237 C 
ATOM     37  O   UNL     1       3.871   2.424   0.465  0.00  0.00    -0.274 OA
BRANCH  31  39
ATOM     38  N   UNL     1       7.670   0.691   0.634  0.00  0.00    -0.302 N 
ATOM     39  C   UNL     1       6.599  -0.151   0.172  0.00  0.00    +0.234 C 
ATOM     40  O   UNL     1       6.165  -1.082   0.903  0.00  0.00    -0.274 OA
ATOM     41  H   UNL     1       7.934   1.500   0.037  0.00  0.00    +0.150 HD
BRANCH  38  42
ATOM     42  C   UNL     1       8.486   0.331   1.801  0.00  0.00    +0.159 C 
BRANCH  42  43
ATOM     43  C   UNL     1       9.381   1.465   2.278  0.00  0.00    +0.234 C 
ATOM     44  O   UNL     1      10.261   1.216   3.140  0.00  0.00    -0.274 OA
ATOM     45  N   UNL     1       9.177   2.829   1.861  0.00  0.00    -0.305 N 
ATOM     46  H   UNL     1       8.258   3.132   1.471  0.00  0.00    +0.149 HD
BRANCH  45  47
ATOM     47  C   UNL     1      10.214   3.839   2.041  0.00  0.00    +0.199 C 
BRANCH  47  48
ATOM     48  C   UNL     1      11.416   3.506   1.211  0.00  0.00    +0.228 C 
ATOM     49  N   UNL     1      11.440   3.790  -0.188  0.00  0.00    -0.328 N 
ATOM     50  O   UNL     1      12.397   2.922   1.749  0.00  0.00    -0.274 OA
ATOM     51  H   UNL     1      10.596   4.194  -0.635  0.00  0.00    +0.145 HD
ATOM     52  H   UNL     1      12.292   3.593  -0.755  0.00  0.00    +0.145 HD
ENDBRANCH  47  48
ENDBRANCH  45  47
ENDBRANCH  42  43
BRANCH  42  53
ATOM     53  C   UNL     1       9.307  -0.962   1.524  0.00  0.00    +0.032 C 
BRANCH  53  54
ATOM     54  C   UNL     1       9.854  -1.126   0.087  0.00  0.00    +0.003 C 
BRANCH  54  55
ATOM     55  C   UNL     1      10.786   0.009  -0.362  0.00  0.00    +0.015 C 
BRANCH  55  56
ATOM     56  C   UNL     1      11.235  -0.204  -1.818  0.00  0.00    +0.077 C 
BRANCH  56  57
ATOM     57  N   UNL     1      12.072   0.903  -2.263  0.00  0.00    -0.330 NA
ATOM     58  H   UNL     1      11.475   1.759  -2.341  0.00  0.00    +0.118 HD
ATOM     59  H   UNL     1      12.387   0.682  -3.235  0.00  0.00    +0.118 HD
ENDBRANCH  56  57
ENDBRANCH  55  56
ENDBRANCH  54  55
ENDBRANCH  53  54
ENDBRANCH  42  53
ENDBRANCH  38  42
ENDBRANCH  31  39
ENDBRANCH   1  36
BRANCH   6  60
ATOM     60  N   UNL     1      -2.742   4.164  -0.050  0.00  0.00    -0.302 N 
ATOM     61  C   UNL     1      -2.537   4.446   1.346  0.00  0.00    +0.231 C 
ATOM     62  O   UNL     1      -2.521   3.516   2.202  0.00  0.00    -0.274 OA
ATOM     63  H   UNL     1      -2.611   4.952  -0.730  0.00  0.00    +0.150 HD
BRANCH  61  64
ATOM     64  C   UNL     1      -2.454   5.871   1.815  0.00  0.00    +0.200 C 
BRANCH  64  65
ATOM     65  N   UNL     1      -3.793   6.365   2.121  0.00  0.00    -0.305 N 
ATOM     66  C   UNL     1      -4.749   6.659   1.093  0.00  0.00    +0.231 C 
ATOM     67  O   UNL     1      -4.367   6.838  -0.097  0.00  0.00    -0.274 OA
ATOM     68  H   UNL     1      -4.107   6.382   3.113  0.00  0.00    +0.149 HD
BRANCH  66  69
ATOM     69  C   UNL     1      -6.215   6.699   1.427  0.00  0.00    +0.200 C 
BRANCH  69  70
ATOM     70  N   UNL     1      -6.980   7.354   0.368  0.00  0.00    -0.306 N 
ATOM     71  C   UNL     1      -6.890   8.758   0.107  0.00  0.00    +0.227 C 
ATOM     72  O   UNL     1      -6.226   9.508   0.876  0.00  0.00    -0.274 OA
ATOM     73  H   UNL     1      -7.592   6.761  -0.250  0.00  0.00    +0.149 HD
BRANCH  71  74
ATOM     74  C   UNL     1      -7.619   9.353  -1.060  0.00  0.00    +0.174 C 
BRANCH  74  75
ATOM     75  N   UNL     1      -9.028   9.564  -0.747  0.00  0.00    -0.322 NA
ATOM     76  H   UNL     1      -9.475   8.637  -0.570  0.00  0.00    +0.119 HD
ATOM     77  H   UNL     1      -9.107  10.153   0.113  0.00  0.00    +0.119 HD
ENDBRANCH  74  75
ENDBRANCH  71  74
ENDBRANCH  69  70
ENDBRANCH  66  69
ENDBRANCH  64  65
ENDBRANCH  61  64
ENDBRANCH   6  60
BRANCH  10  78
ATOM     78  C   UNL     1      -6.428   0.365  -0.723  0.00  0.00    +0.067 C 
BRANCH  78  79
ATOM     79  C   UNL     1      -7.805  -0.099  -0.316  0.00  0.00    -0.045 A 
ATOM     80  C   UNL     1      -8.358  -1.268  -0.863  0.00  0.00    +0.007 A 
ATOM     81  C   UNL     1      -9.619  -1.716  -0.446  0.00  0.00    +0.045 A 
ATOM     82  C   UNL     1     -10.345  -0.986   0.505  0.00  0.00    +0.117 A 
ATOM     83  C   UNL     1      -9.794   0.179   1.051  0.00  0.00    +0.045 A 
ATOM     84  C   UNL     1      -8.528   0.612   0.656  0.00  0.00    +0.007 A 
BRANCH  82  85
ATOM     85  O   UNL     1     -11.598  -1.417   0.926  0.00  0.00    -0.507 OA
ATOM     86  H   UNL     1     -11.996  -2.292   0.594  0.00  0.00    +0.292 HD
ENDBRANCH  82  85
ENDBRANCH  78  79
ENDBRANCH  10  78
BRANCH  14  87
ATOM     87  C   UNL     1      -5.470  -4.501  -0.978  0.00  0.00    +0.067 C 
BRANCH  87  88
ATOM     88  C   UNL     1      -6.345  -5.704  -1.243  0.00  0.00    -0.045 A 
ATOM     89  C   UNL     1      -5.887  -6.999  -0.941  0.00  0.00    +0.004 A 
ATOM     90  C   UNL     1      -6.692  -8.112  -1.228  0.00  0.00    +0.000 A 
ATOM     91  C   UNL     1      -7.946  -7.942  -1.825  0.00  0.00    +0.000 A 
ATOM     92  C   UNL     1      -8.412  -6.653  -2.114  0.00  0.00    +0.000 A 
ATOM     93  C   UNL     1      -7.620  -5.538  -1.824  0.00  0.00    +0.004 A 
ENDBRANCH  87  88
ENDBRANCH  14  87
BRANCH  18  94
ATOM     94  C   UNL     1      -1.323  -5.154   0.146  0.00  0.00    +0.041 C 
BRANCH  94  95
ATOM     95  C   UNL     1      -1.240  -4.513  -1.249  0.00  0.00    +0.098 C 
BRANCH  95  96
ATOM     96  C   UNL     1      -1.306  -5.564  -2.319  0.00  0.00    +0.211 C 
ATOM     97  N   UNL     1      -0.287  -6.567  -2.421  0.00  0.00    -0.329 N 
ATOM     98  O   UNL     1      -2.288  -5.601  -3.107  0.00  0.00    -0.276 OA
ATOM     99  H   UNL     1      -0.351  -7.311  -3.146  0.00  0.00    +0.145 HD
ATOM    100  H   UNL     1       0.576  -6.513  -1.829  0.00  0.00    +0.145 HD
ENDBRANCH  95  96
ENDBRANCH  94  95
ENDBRANCH  18  94
BRANCH  22 101
ATOM    101  C   UNL     1       2.843  -2.482   2.886  0.00  0.00    +0.127 C 
BRANCH 101 102
ATOM    102  C   UNL     1       3.606  -3.610   2.246  0.00  0.00    +0.213 C 
ATOM    103  N   UNL     1       3.418  -4.956   2.695  0.00  0.00    -0.329 N 
ATOM    104  O   UNL     1       4.412  -3.373   1.306  0.00  0.00    -0.276 OA
ATOM    105  H   UNL     1       3.931  -5.739   2.233  0.00  0.00    +0.145 HD
ATOM    106  H   UNL     1       2.781  -5.173   3.489  0.00  0.00    +0.145 HD
ENDBRANCH 101 102
ENDBRANCH  22 101
TORSDOF 28
