REMARK  Name = 
REMARK  3 active torsions:
REMARK  status: ('A' for Active; 'I' for Inactive)
REMARK    1  A    between atoms: C_4  and  O_5
REMARK    2  A    between atoms: C_6  and  C_7
REMARK    3  A    between atoms: C_20  and  C_21
REMARK                            x       y       z     vdW  Elec       q    Type
REMARK                         _______ _______ _______ _____ _____    ______ ____
ROOT
ATOM      1  C   UNL     1      -1.781  -0.285   0.634  0.00  0.00    +0.001 C 
ATOM      2  C   UNL     1      -2.706  -1.216   1.407  0.00  0.00    +0.007 C 
ATOM      3  C   UNL     1      -4.091  -0.972   0.781  0.00  0.00    +0.032 C 
ATOM      4  C   UNL     1      -3.863  -0.087  -0.465  0.00  0.00    +0.121 C 
ATOM      5  C   UNL     1      -2.364  -0.252  -0.784  0.00  0.00    -0.003 C 
ATOM      6  C   UNL     1      -2.142  -1.572  -1.593  0.00  0.00    +0.014 C 
ATOM      7  C   UNL     1      -1.730   0.942  -1.528  0.00  0.00    +0.010 C 
ATOM      8  C   UNL     1      -0.187   0.826  -1.559  0.00  0.00    +0.005 C 
ATOM      9  C   UNL     1       0.448   0.600  -0.147  0.00  0.00    +0.002 C 
ATOM     10  C   UNL     1      -0.261  -0.551   0.645  0.00  0.00    -0.003 C 
ATOM     11  C   UNL     1       0.274  -0.594   2.086  0.00  0.00    +0.008 C 
ATOM     12  C   UNL     1       1.778  -0.854   2.099  0.00  0.00    +0.032 C 
ATOM     13  C   UNL     1       2.514   0.161   1.256  0.00  0.00    -0.060 C 
ATOM     14  C   UNL     1       3.692   0.634   1.706  0.00  0.00    +0.046 C 
ATOM     15  C   UNL     1       4.539   1.519   0.896  0.00  0.00    +0.156 C 
ATOM     16  O   UNL     1       5.617   1.959   1.376  0.00  0.00    -0.293 OA
ATOM     17  C   UNL     1       4.167   1.845  -0.513  0.00  0.00    +0.080 C 
ATOM     18  C   UNL     1       2.648   1.779  -0.697  0.00  0.00    +0.019 C 
ATOM     19  C   UNL     1       2.019   0.448  -0.170  0.00  0.00    -0.007 C 
ATOM     20  C   UNL     1       2.469  -0.725  -1.080  0.00  0.00    +0.016 C 
ENDROOT
BRANCH   4  21
ATOM     21  O   UNL     1      -4.683  -0.479  -1.536  0.00  0.00    -0.391 OA
ATOM     22  H   UNL     1      -5.609  -0.215  -1.292  0.00  0.00    +0.210 HD
ENDBRANCH   4  21
TORSDOF 1
