REMARK  Name = 
REMARK  6 active torsions:
REMARK  status: ('A' for Active; 'I' for Inactive)
REMARK    1  A    between atoms: C_4  and  O_5
REMARK    2  A    between atoms: O_5  and  C_6
REMARK    3  A    between atoms: C_6  and  C_8
REMARK    4  A    between atoms: C_8  and  C_9
REMARK    5  A    between atoms: C_10  and  C_11
REMARK    6  A    between atoms: C_24  and  C_25
REMARK                            x       y       z     vdW  Elec       q    Type
REMARK                         _______ _______ _______ _____ _____    ______ ____
ROOT
ATOM      1  C   UNL     1       0.572   0.313  -1.239  0.00  0.00    +0.002 C 
ATOM      2  C   UNL     1       1.404   0.029  -2.485  0.00  0.00    +0.008 C 
ATOM      3  C   UNL     1       2.844   0.361  -2.055  0.00  0.00    +0.045 C 
ATOM      4  C   UNL     1       2.811   0.608  -0.533  0.00  0.00    +0.183 C 
ATOM      5  C   UNL     1       1.500  -0.064  -0.068  0.00  0.00    +0.008 C 
ATOM      6  C   UNL     1       1.738  -1.601   0.096  0.00  0.00    +0.015 C 
ATOM      7  C   UNL     1       0.894   0.511   1.233  0.00  0.00    +0.011 C 
ATOM      8  C   UNL     1      -0.555   0.009   1.457  0.00  0.00    +0.005 C 
ATOM      9  C   UNL     1      -1.470   0.259   0.220  0.00  0.00    +0.002 C 
ATOM     10  C   UNL     1      -0.834  -0.310  -1.093  0.00  0.00    -0.003 C 
ATOM     11  C   UNL     1      -1.742  -0.096  -2.340  0.00  0.00    +0.008 C 
ATOM     12  C   UNL     1      -3.003   0.741  -2.086  0.00  0.00    +0.032 C 
ATOM     13  C   UNL     1      -3.743   0.322  -0.833  0.00  0.00    -0.060 C 
ATOM     14  C   UNL     1      -5.063   0.563  -0.761  0.00  0.00    +0.046 C 
ATOM     15  C   UNL     1      -5.806   0.445   0.503  0.00  0.00    +0.156 C 
ATOM     16  O   UNL     1      -7.059   0.565   0.497  0.00  0.00    -0.293 OA
ATOM     17  C   UNL     1      -5.096   0.186   1.798  0.00  0.00    +0.080 C 
ATOM     18  C   UNL     1      -3.581   0.421   1.677  0.00  0.00    +0.019 C 
ATOM     19  C   UNL     1      -2.966  -0.195   0.383  0.00  0.00    -0.007 C 
ATOM     20  C   UNL     1      -3.093  -1.740   0.437  0.00  0.00    +0.016 C 
ENDROOT
BRANCH   4  21
ATOM     21  O   UNL     1       3.976   0.060   0.087  0.00  0.00    -0.461 OA
BRANCH  21  22
ATOM     22  C   UNL     1       4.437   0.452   1.349  0.00  0.00    +0.307 C 
ATOM     23  O   UNL     1       3.908   1.420   1.959  0.00  0.00    -0.251 OA
BRANCH  22  24
ATOM     24  C   UNL     1       5.612  -0.250   1.949  0.00  0.00    +0.117 C 
ATOM     25  C   UNL     1       6.915   0.360   1.445  0.00  0.00    +0.015 C 
ENDBRANCH  22  24
ENDBRANCH  21  22
ENDBRANCH   4  21
TORSDOF 3
