REMARK  Name = 
REMARK  2 active torsions:
REMARK  status: ('A' for Active; 'I' for Inactive)
REMARK    1  A    between atoms: C_10  and  C_11
REMARK    2  A    between atoms: C_15  and  C_16
REMARK                            x       y       z     vdW  Elec       q    Type
REMARK                         _______ _______ _______ _____ _____    ______ ____
ROOT
ATOM      1  C   UNL     1       0.281  -0.159   0.701  0.00  0.00    +0.000 C 
ATOM      2  C   UNL     1      -0.251  -1.284   1.621  0.00  0.00    +0.008 C 
ATOM      3  C   UNL     1      -1.657  -0.988   2.135  0.00  0.00    +0.032 C 
ATOM      4  C   UNL     1      -2.580  -0.744   0.975  0.00  0.00    -0.056 C 
ATOM      5  C   UNL     1      -3.706  -1.469   0.866  0.00  0.00    +0.051 C 
ATOM      6  C   UNL     1      -4.594  -1.308  -0.282  0.00  0.00    +0.179 C 
ATOM      7  O   UNL     1      -5.658  -1.978  -0.361  0.00  0.00    -0.288 OA
ATOM      8  C   UNL     1      -4.230  -0.379  -1.347  0.00  0.00    +0.047 C 
ATOM      9  C   UNL     1      -3.122   0.357  -1.255  0.00  0.00    -0.012 C 
ATOM     10  C   UNL     1      -2.196   0.348  -0.034  0.00  0.00    +0.011 C 
ATOM     11  C   UNL     1      -2.359   1.723   0.656  0.00  0.00    +0.020 C 
ATOM     12  C   UNL     1      -0.709   0.083  -0.494  0.00  0.00    +0.006 C 
ATOM     13  C   UNL     1      -0.154   1.179  -1.443  0.00  0.00    +0.009 C 
ATOM     14  C   UNL     1       1.254   0.839  -1.945  0.00  0.00    +0.048 C 
ATOM     15  C   UNL     1       2.252   0.623  -0.792  0.00  0.00    +0.114 C 
ATOM     16  C   UNL     1       2.529   1.967  -0.069  0.00  0.00    +0.056 C 
ATOM     17  O   UNL     1       3.487   0.192  -1.363  0.00  0.00    -0.458 OA
ATOM     18  C   UNL     1       4.460  -0.498  -0.633  0.00  0.00    +0.308 C 
ATOM     19  O   UNL     1       5.630  -0.577  -1.090  0.00  0.00    -0.251 OA
ATOM     20  C   UNL     1       4.108  -1.243   0.625  0.00  0.00    +0.121 C 
ATOM     21  C   UNL     1       2.761  -0.820   1.235  0.00  0.00    +0.019 C 
ATOM     22  C   UNL     1       1.707  -0.497   0.149  0.00  0.00    +0.037 C 
ENDROOT
TORSDOF 0
