REMARK  Name = 
REMARK  8 active torsions:
REMARK  status: ('A' for Active; 'I' for Inactive)
REMARK    1  A    between atoms: C_1  and  O_2
REMARK    2  A    between atoms: O_2  and  C_3
REMARK    3  A    between atoms: C_4  and  O_5
REMARK    4  A    between atoms: O_5  and  C_6
REMARK    5  A    between atoms: C_13  and  C_14
REMARK    6  A    between atoms: C_14  and  C_15
REMARK    7  A    between atoms: C_15  and  C_16
REMARK    8  A    between atoms: C_15  and  C_17
REMARK                            x       y       z     vdW  Elec       q    Type
REMARK                         _______ _______ _______ _____ _____    ______ ____
ROOT
ATOM      1  C   UNL     1      -4.149  -1.817   0.592  0.00  0.00    +0.162 A 
ATOM      2  C   UNL     1      -4.213  -0.443   0.320  0.00  0.00    +0.162 A 
ATOM      3  C   UNL     1      -3.027   0.311   0.258  0.00  0.00    +0.054 A 
ATOM      4  C   UNL     1      -1.778  -0.296   0.464  0.00  0.00    -0.023 A 
ATOM      5  C   UNL     1      -0.515   0.533   0.330  0.00  0.00    +0.094 C 
ATOM      6  C   UNL     1      -0.241   0.844  -1.156  0.00  0.00    +0.098 C 
ATOM      7  C   UNL     1       1.096   1.503  -1.319  0.00  0.00    +0.139 C 
ATOM      8  O   UNL     1       1.219   2.422  -2.116  0.00  0.00    -0.297 OA
ATOM      9  C   UNL     1       2.291   0.940  -0.579  0.00  0.00    +0.070 C 
ATOM     10  C   UNL     1       1.881   0.651   0.884  0.00  0.00    +0.096 C 
ATOM     11  N   UNL     1       0.633  -0.134   0.990  0.00  0.00    -0.294 NA
ATOM     12  C   UNL     1       0.797  -1.536   0.564  0.00  0.00    +0.089 C 
ATOM     13  C   UNL     1      -0.402  -2.357   1.034  0.00  0.00    +0.051 C 
ATOM     14  C   UNL     1      -1.713  -1.681   0.723  0.00  0.00    -0.038 A 
ATOM     15  C   UNL     1      -2.898  -2.427   0.798  0.00  0.00    +0.053 A 
ENDROOT
BRANCH   1  17
ATOM     16  C   UNL     1      -5.439  -3.937   0.917  0.00  0.00    +0.277 C 
ATOM     17  O   UNL     1      -5.350  -2.541   0.652  0.00  0.00    -0.491 OA
ENDBRANCH   1  17
BRANCH   2  18
ATOM     18  O   UNL     1      -5.476   0.137   0.117  0.00  0.00    -0.491 OA
ATOM     19  C   UNL     1      -5.696   1.514  -0.169  0.00  0.00    +0.277 C 
ENDBRANCH   2  18
BRANCH   9  20
ATOM     20  C   UNL     1       3.517   1.887  -0.660  0.00  0.00    +0.015 C 
BRANCH  20  21
ATOM     21  C   UNL     1       4.814   1.286  -0.044  0.00  0.00    -0.016 C 
ATOM     22  C   UNL     1       5.113   1.896   1.335  0.00  0.00    +0.007 C 
ATOM     23  C   UNL     1       6.018   1.503  -0.971  0.00  0.00    +0.007 C 
ENDBRANCH  20  21
ENDBRANCH   9  20
TORSDOF 4
