REMARK  Name = 
REMARK  10 active torsions:
REMARK  status: ('A' for Active; 'I' for Inactive)
REMARK    1  A    between atoms: C_5  and  O_6
REMARK    2  A    between atoms: C_7  and  O_8
REMARK    3  A    between atoms: C_11  and  C_12
REMARK    4  A    between atoms: C_15  and  O_16
REMARK    5  A    between atoms: C_17  and  N_18
REMARK    6  A    between atoms: N_18  and  C_19
REMARK    7  A    between atoms: N_18  and  C_20
REMARK    8  A    between atoms: C_24  and  O_25
REMARK    9  A    between atoms: C_30  and  C_31
REMARK   10  A    between atoms: C_30  and  O_32
REMARK                            x       y       z     vdW  Elec       q    Type
REMARK                         _______ _______ _______ _____ _____    ______ ____
ROOT
ATOM      1  C   UNL     1      -1.255  -0.098  -1.171  0.00  0.00    +0.061 C 
ATOM      2  C   UNL     1      -0.063  -1.089  -0.955  0.00  0.00    +0.020 C 
ATOM      3  C   UNL     1       1.278  -0.443  -0.470  0.00  0.00    +0.062 C 
ATOM      4  C   UNL     1       0.979   0.702   0.484  0.00  0.00    +0.047 C 
ATOM      5  C   UNL     1       0.051   1.613   0.129  0.00  0.00    +0.141 C 
ATOM      6  C   UNL     1      -0.753   1.373  -1.149  0.00  0.00    +0.190 C 
ATOM      7  C   UNL     1      -1.913   2.338  -1.240  0.00  0.00    +0.211 C 
ATOM      8  O   UNL     1      -1.700   3.511  -1.660  0.00  0.00    -0.288 OA
ATOM      9  C   UNL     1      -3.268   1.959  -0.810  0.00  0.00    +0.121 C 
ATOM     10  C   UNL     1      -3.531   0.720  -0.322  0.00  0.00    +0.127 C 
ATOM     11  C   UNL     1      -2.434  -0.309  -0.141  0.00  0.00    +0.129 C 
ATOM     12  C   UNL     1       1.859   0.870   1.655  0.00  0.00    +0.197 C 
ATOM     13  O   UNL     1       1.394   1.267   2.758  0.00  0.00    -0.287 OA
ATOM     14  C   UNL     1       3.253   0.397   1.548  0.00  0.00    +0.069 A 
ATOM     15  C   UNL     1       4.325   1.059   2.191  0.00  0.00    +0.128 A 
ATOM     16  C   UNL     1       5.616   0.537   2.099  0.00  0.00    +0.046 A 
ATOM     17  C   UNL     1       5.860  -0.611   1.349  0.00  0.00    +0.004 A 
ATOM     18  C   UNL     1       4.822  -1.250   0.679  0.00  0.00    +0.007 A 
ATOM     19  C   UNL     1       3.502  -0.747   0.744  0.00  0.00    -0.001 A 
ATOM     20  C   UNL     1       2.293  -1.487   0.121  0.00  0.00    +0.096 C 
ATOM     21  C   UNL     1       2.705  -2.466  -1.011  0.00  0.00    +0.047 C 
ENDROOT
BRANCH   9  22
ATOM     22  C   UNL     1      -4.328   2.974  -0.895  0.00  0.00    +0.248 C 
ATOM     23  N   UNL     1      -4.675   3.738   0.256  0.00  0.00    -0.325 N 
ATOM     24  O   UNL     1      -4.980   3.119  -1.962  0.00  0.00    -0.270 OA
ATOM     25  H   UNL     1      -5.455   4.430   0.223  0.00  0.00    +0.145 HD
ATOM     26  H   UNL     1      -4.154   3.596   1.152  0.00  0.00    +0.145 HD
ENDBRANCH   9  22
BRANCH  11  27
ATOM     27  N   UNL     1      -3.087  -1.658  -0.150  0.00  0.00    -0.299 NA
ATOM     28  C   UNL     1      -2.858  -2.419   1.098  0.00  0.00    +0.105 C 
ATOM     29  C   UNL     1      -2.923  -2.503  -1.356  0.00  0.00    +0.105 C 
ENDBRANCH  11  27
BRANCH   5  30
ATOM     30  O   UNL     1      -0.152   2.809   0.846  0.00  0.00    -0.507 OA
ATOM     31  H   UNL     1       0.453   3.124   1.600  0.00  0.00    +0.292 HD
ENDBRANCH   5  30
BRANCH   6  32
ATOM     32  O   UNL     1       0.065   1.569  -2.283  0.00  0.00    -0.373 OA
ATOM     33  H   UNL     1       0.625   2.378  -2.133  0.00  0.00    +0.211 HD
ENDBRANCH   6  32
BRANCH  10  34
ATOM     34  O   UNL     1      -4.829   0.347   0.060  0.00  0.00    -0.509 OA
ATOM     35  H   UNL     1      -5.626   0.971   0.034  0.00  0.00    +0.292 HD
ENDBRANCH  10  34
BRANCH  15  36
ATOM     36  O   UNL     1       4.153   2.250   2.901  0.00  0.00    -0.506 OA
ATOM     37  H   UNL     1       3.277   2.765   2.935  0.00  0.00    +0.292 HD
ENDBRANCH  15  36
BRANCH  20  38
ATOM     38  O   UNL     1       1.650  -2.220   1.141  0.00  0.00    -0.384 OA
ATOM     39  H   UNL     1       2.312  -2.875   1.496  0.00  0.00    +0.211 HD
ENDBRANCH  20  38
TORSDOF 7
