REMARK  Name = 
REMARK  5 active torsions:
REMARK  status: ('A' for Active; 'I' for Inactive)
REMARK    1  A    between atoms: C_1  and  C_2
REMARK    2  A    between atoms: C_2  and  O_3
REMARK    3  A    between atoms: C_2  and  C_4
REMARK    4  A    between atoms: C_4  and  O_5
REMARK    5  A    between atoms: C_4  and  C_6
REMARK                            x       y       z     vdW  Elec       q    Type
REMARK                         _______ _______ _______ _____ _____    ______ ____
ROOT
ATOM      1  C   UNL     1      -0.804  -0.743   0.397  0.00  0.00    +0.119 C 
ATOM      2  C   UNL     1      -0.268  -1.478  -0.849  0.00  0.00    +0.127 C 
ATOM      3  N   UNL     1       1.180  -1.644  -0.741  0.00  0.00    -0.327 N 
ATOM      4  C   UNL     1       1.991  -0.561  -0.268  0.00  0.00    +0.125 A 
ATOM      5  C   UNL     1       1.381   0.514   0.391  0.00  0.00    +0.133 A 
ATOM      6  N   UNL     1      -0.038   0.491   0.624  0.00  0.00    -0.330 N 
ATOM      7  C   UNL     1       2.189   1.573   0.823  0.00  0.00    +0.297 A 
ATOM      8  O   UNL     1       1.689   2.567   1.411  0.00  0.00    -0.264 OA
ATOM      9  N   UNL     1       3.530   1.525   0.609  0.00  0.00    -0.176 NA
ATOM     10  C   UNL     1       4.109   0.466  -0.017  0.00  0.00    +0.195 A 
ATOM     11  N   UNL     1       5.522   0.450  -0.221  0.00  0.00    -0.329 N 
ATOM     12  N   UNL     1       3.340  -0.573  -0.450  0.00  0.00    -0.315 N 
ATOM     13  H   UNL     1       1.625  -2.523  -1.087  0.00  0.00    +0.148 HD
ATOM     14  H   UNL     1      -0.482   1.283   1.142  0.00  0.00    +0.147 HD
ATOM     15  H   UNL     1       5.983  -0.354  -0.700  0.00  0.00    +0.145 HD
ATOM     16  H   UNL     1       6.110   1.247   0.110  0.00  0.00    +0.145 HD
ATOM     17  H   UNL     1       3.788  -1.382  -0.936  0.00  0.00    +0.170 HD
ENDROOT
BRANCH   1  18
ATOM     18  C   UNL     1      -2.338  -0.486   0.348  0.00  0.00    +0.164 C 
BRANCH  18  20
ATOM     19  C   UNL     1      -4.332   0.546  -0.836  0.00  0.00    +0.040 C 
ATOM     20  C   UNL     1      -2.804   0.419  -0.820  0.00  0.00    +0.142 C 
BRANCH  20  21
ATOM     21  O   UNL     1      -2.232   1.696  -0.707  0.00  0.00    -0.389 OA
ATOM     22  H   UNL     1      -2.289   2.119  -1.604  0.00  0.00    +0.210 HD
ENDBRANCH  20  21
ENDBRANCH  18  20
BRANCH  18  23
ATOM     23  O   UNL     1      -2.758   0.072   1.569  0.00  0.00    -0.387 OA
ATOM     24  H   UNL     1      -2.757  -0.660   2.239  0.00  0.00    +0.210 HD
ENDBRANCH  18  23
ENDBRANCH   1  18
TORSDOF 4
