REMARK  Name = 
REMARK  1 active torsions:
REMARK  status: ('A' for Active; 'I' for Inactive)
REMARK    1  A    between atoms: N_3  and  C_4
REMARK                            x       y       z     vdW  Elec       q    Type
REMARK                         _______ _______ _______ _____ _____    ______ ____
ROOT
ATOM      1  O   UNL     1      -0.113   1.382  -1.395  0.00  0.00    -0.270 OA
ATOM      2  C   UNL     1       0.429   0.767  -0.439  0.00  0.00    +0.254 C 
ATOM      3  N   UNL     1      -0.249   0.362   0.760  0.00  0.00    -0.222 N 
ATOM      4  C   UNL     1       0.756  -0.321   1.516  0.00  0.00    +0.254 C 
ATOM      5  O   UNL     1       0.551  -0.874   2.629  0.00  0.00    -0.270 OA
ATOM      6  C   UNL     1       2.027  -0.301   0.804  0.00  0.00    +0.049 A 
ATOM      7  C   UNL     1       3.271  -0.829   1.147  0.00  0.00    +0.014 A 
ATOM      8  C   UNL     1       4.332  -0.663   0.237  0.00  0.00    +0.001 A 
ATOM      9  C   UNL     1       4.127   0.016  -0.984  0.00  0.00    +0.001 A 
ATOM     10  C   UNL     1       2.861   0.535  -1.307  0.00  0.00    +0.014 A 
ATOM     11  C   UNL     1       1.828   0.360  -0.387  0.00  0.00    +0.049 A 
ENDROOT
BRANCH   3  12
ATOM     12  C   UNL     1      -1.693   0.309   1.026  0.00  0.00    +0.171 C 
ATOM     13  C   UNL     1      -2.308  -1.002   0.498  0.00  0.00    +0.041 C 
ATOM     14  C   UNL     1      -2.448  -1.020  -1.028  0.00  0.00    +0.098 C 
ATOM     15  C   UNL     1      -3.182   0.196  -1.512  0.00  0.00    +0.219 C 
ATOM     16  O   UNL     1      -3.821   0.149  -2.597  0.00  0.00    -0.275 OA
ATOM     17  N   UNL     1      -3.114   1.425  -0.780  0.00  0.00    -0.255 N 
ATOM     18  C   UNL     1      -2.400   1.513   0.458  0.00  0.00    +0.240 C 
ATOM     19  O   UNL     1      -2.333   2.616   1.062  0.00  0.00    -0.273 OA
ATOM     20  H   UNL     1      -3.597   2.272  -1.155  0.00  0.00    +0.158 HD
ENDBRANCH   3  12
TORSDOF 1
