REMARK  Name = 
REMARK  2 active torsions:
REMARK  status: ('A' for Active; 'I' for Inactive)
REMARK    1  A    between atoms: C_1  and  N_2
REMARK    2  A    between atoms: N_10  and  C_11
REMARK                            x       y       z     vdW  Elec       q    Type
REMARK                         _______ _______ _______ _____ _____    ______ ____
ROOT
ATOM      1  C   UNL     1      -1.193  -2.439   0.001  0.00  0.00    +0.155 C 
ATOM      2  N   UNL     1      -0.497  -1.145   0.022  0.00  0.00    -0.280 N 
ATOM      3  C   UNL     1      -1.194   0.024   0.005  0.00  0.00    +0.168 A 
ATOM      4  C   UNL     1      -0.581   1.226   0.005  0.00  0.00    +0.149 A 
ATOM      5  N   UNL     1      -1.502   2.198   0.004  0.00  0.00    -0.339 N 
ATOM      6  C   UNL     1      -2.679   1.526   0.001  0.00  0.00    +0.199 A 
ATOM      7  N   UNL     1      -2.532   0.174   0.003  0.00  0.00    -0.218 NA
ATOM      8  C   UNL     1       0.799   1.317   0.002  0.00  0.00    +0.282 A 
ATOM      9  O   UNL     1       1.361   2.446   0.022  0.00  0.00    -0.265 OA
ATOM     10  N   UNL     1       1.528   0.149  -0.025  0.00  0.00    -0.262 N 
ATOM     11  C   UNL     1       3.000   0.201  -0.007  0.00  0.00    +0.157 C 
ATOM     12  C   UNL     1       0.880  -1.076  -0.002  0.00  0.00    +0.333 A 
ATOM     13  O   UNL     1       1.556  -2.144  -0.000  0.00  0.00    -0.246 OA
ATOM     14  H   UNL     1      -1.353   3.231   0.002  0.00  0.00    +0.167 HD
ENDROOT
TORSDOF 0
