REMARK  Name = 
REMARK  2 active torsions:
REMARK  status: ('A' for Active; 'I' for Inactive)
REMARK    1  A    between atoms: C_1  and  N_2
REMARK    2  A    between atoms: N_12  and  C_13
REMARK                            x       y       z     vdW  Elec       q    Type
REMARK                         _______ _______ _______ _____ _____    ______ ____
ROOT
ATOM      1  C   UNL     1      -3.143  -0.106  -0.158  0.00  0.00    +0.150 C 
ATOM      2  N   UNL     1      -1.752  -0.536  -0.065  0.00  0.00    -0.328 N 
ATOM      3  C   UNL     1      -1.288  -1.810  -0.029  0.00  0.00    +0.202 A 
ATOM      4  N   UNL     1       0.067  -1.886   0.045  0.00  0.00    -0.218 NA
ATOM      5  C   UNL     1       0.440  -0.590   0.055  0.00  0.00    +0.168 A 
ATOM      6  C   UNL     1      -0.644   0.221  -0.013  0.00  0.00    +0.151 A 
ATOM      7  C   UNL     1      -0.486   1.601  -0.036  0.00  0.00    +0.280 A 
ATOM      8  O   UNL     1      -1.476   2.378  -0.100  0.00  0.00    -0.265 OA
ATOM      9  N   UNL     1       0.786   2.097   0.009  0.00  0.00    -0.273 N 
ATOM     10  C   UNL     1       1.877   1.264   0.075  0.00  0.00    +0.331 A 
ATOM     11  O   UNL     1       3.034   1.767   0.095  0.00  0.00    -0.246 OA
ATOM     12  N   UNL     1       1.712  -0.104   0.117  0.00  0.00    -0.280 N 
ATOM     13  C   UNL     1       2.867  -1.011   0.148  0.00  0.00    +0.155 C 
ATOM     14  H   UNL     1       0.932   3.132  -0.015  0.00  0.00    +0.173 HD
ENDROOT
TORSDOF 0
