REMARK  Name = 
REMARK  7 active torsions:
REMARK  status: ('A' for Active; 'I' for Inactive)
REMARK    1  A    between atoms: C_1  and  C_2
REMARK    2  A    between atoms: C_3  and  C_4
REMARK    3  A    between atoms: C_4  and  C_5
REMARK    4  A    between atoms: C_5  and  O_6
REMARK    5  A    between atoms: N_9  and  C_10
REMARK    6  A    between atoms: C_10  and  C_11
REMARK    7  A    between atoms: C_14  and  C_15
REMARK                            x       y       z     vdW  Elec       q    Type
REMARK                         _______ _______ _______ _____ _____    ______ ____
ROOT
ATOM      1  C   UNL     1       0.854  -1.499   0.293  0.00  0.00    +0.162 C 
ENDROOT
BRANCH   1   2
ATOM      2  C   UNL     1       2.041  -0.576   0.121  0.00  0.00    +0.030 A 
ATOM      3  C   UNL     1       3.156  -0.716   0.960  0.00  0.00    +0.121 A 
ATOM      4  N   UNL     1       4.221   0.115   0.828  0.00  0.00    -0.240 NA
ATOM      5  C   UNL     1       4.228   1.101  -0.104  0.00  0.00    +0.128 A 
ATOM      6  C   UNL     1       5.426   1.977  -0.256  0.00  0.00    +0.088 C 
ATOM      7  N   UNL     1       3.165   1.254  -0.935  0.00  0.00    -0.218 NA
ATOM      8  C   UNL     1       2.071   0.451  -0.847  0.00  0.00    +0.125 A 
ATOM      9  N   UNL     1       0.979   0.678  -1.745  0.00  0.00    -0.343 N 
ATOM     10  H   UNL     1       0.111   0.102  -1.727  0.00  0.00    +0.144 HD
ATOM     11  H   UNL     1       1.037   1.448  -2.447  0.00  0.00    +0.144 HD
ENDBRANCH   1   2
BRANCH   1  17
ATOM     12  C   UNL     1      -1.987  -2.018  -0.617  0.00  0.00    +0.064 C 
ATOM     13  C   UNL     1      -1.619  -1.022   0.452  0.00  0.00    +0.026 A 
ATOM     14  C   UNL     1      -2.562  -0.247   1.142  0.00  0.00    +0.012 A 
ATOM     15  S   UNL     1      -1.742   0.709   2.255  0.00  0.00    -0.082 S 
ATOM     16  C   UNL     1      -0.230   0.116   1.839  0.00  0.00    +0.132 A 
ATOM     17  N   UNL     1      -0.319  -0.787   0.830  0.00  0.00    -0.340 N 
BRANCH  14  18
ATOM     18  C   UNL     1      -4.048  -0.191   0.928  0.00  0.00    +0.072 C 
BRANCH  18  19
ATOM     19  C   UNL     1      -4.402   0.604  -0.332  0.00  0.00    +0.161 C 
BRANCH  19  20
ATOM     20  O   UNL     1      -3.955   1.929  -0.229  0.00  0.00    -0.395 OA
ATOM     21  H   UNL     1      -4.572   2.389   0.399  0.00  0.00    +0.209 HD
ENDBRANCH  19  20
ENDBRANCH  18  19
ENDBRANCH  14  18
ENDBRANCH   1  17
TORSDOF 5
