REMARK  Name = 
REMARK  7 active torsions:
REMARK  status: ('A' for Active; 'I' for Inactive)
REMARK    1  A    between atoms: C_1  and  C_2
REMARK    2  A    between atoms: C_2  and  C_3
REMARK    3  A    between atoms: C_3  and  C_4
REMARK    4  A    between atoms: C_4  and  C_5
REMARK    5  A    between atoms: C_4  and  C_6
REMARK    6  A    between atoms: C_6  and  C_7
REMARK    7  A    between atoms: C_7  and  C_8
REMARK                            x       y       z     vdW  Elec       q    Type
REMARK                         _______ _______ _______ _____ _____    ______ ____
ROOT
ATOM      1  C   UNL     1      -0.817   0.162  -0.219  0.00  0.00    +0.129 C 
ATOM      2  C   UNL     1      -1.170  -1.315   0.003  0.00  0.00    +0.234 C 
ATOM      3  O   UNL     1      -0.758  -1.925   1.026  0.00  0.00    -0.274 OA
ATOM      4  N   UNL     1      -2.041  -2.010  -0.894  0.00  0.00    -0.267 N 
ATOM      5  C   UNL     1      -2.329  -1.482  -2.185  0.00  0.00    +0.143 C 
ATOM      6  S   UNL     1      -3.315  -2.298  -3.205  0.00  0.00    -0.018 S 
ATOM      7  N   UNL     1      -1.683  -0.288  -2.616  0.00  0.00    -0.267 N 
ATOM      8  C   UNL     1      -0.861   0.470  -1.722  0.00  0.00    +0.234 C 
ATOM      9  O   UNL     1      -0.252   1.476  -2.179  0.00  0.00    -0.274 OA
ATOM     10  H   UNL     1      -2.413  -2.948  -0.622  0.00  0.00    +0.157 HD
ATOM     11  H   UNL     1      -1.798   0.036  -3.603  0.00  0.00    +0.157 HD
ENDROOT
BRANCH   1  12
ATOM     12  C   UNL     1       0.639   0.508   0.317  0.00  0.00    +0.010 C 
ATOM     13  C   UNL     1       0.760   0.616   1.853  0.00  0.00    +0.009 C 
BRANCH  12  14
ATOM     14  C   UNL     1       1.711  -0.471  -0.246  0.00  0.00    +0.004 C 
BRANCH  14  16
ATOM     15  C   UNL     1       4.112  -0.798  -0.962  0.00  0.00    +0.004 C 
ATOM     16  C   UNL     1       3.095   0.184  -0.387  0.00  0.00    -0.003 C 
ENDBRANCH  14  16
ENDBRANCH  12  14
ENDBRANCH   1  12
BRANCH   1  17
ATOM     17  C   UNL     1      -1.917   1.072   0.417  0.00  0.00    +0.052 C 
BRANCH  17  18
ATOM     18  C   UNL     1      -2.328   0.708   1.827  0.00  0.00    -0.033 C 
ATOM     19  C   UNL     1      -2.525   1.641   2.763  0.00  0.00    +0.004 C 
ENDBRANCH  17  18
ENDBRANCH   1  17
TORSDOF 5
