REMARK  Name = 
REMARK  1 active torsions:
REMARK  status: ('A' for Active; 'I' for Inactive)
REMARK    1  A    between atoms: C_9  and  C_10
REMARK                            x       y       z     vdW  Elec       q    Type
REMARK                         _______ _______ _______ _____ _____    ______ ____
ROOT
ATOM      1  N   UNL     1       0.005  -1.014  -0.391  0.00  0.00    -0.337 N 
ATOM      2  C   UNL     1      -1.184  -0.406  -0.301  0.00  0.00    +0.067 A 
ATOM      3  C   UNL     1      -2.451  -0.949  -0.501  0.00  0.00    +0.028 A 
ATOM      4  C   UNL     1      -3.557  -0.092  -0.345  0.00  0.00    +0.002 A 
ATOM      5  C   UNL     1      -3.367   1.266   0.002  0.00  0.00    +0.002 A 
ATOM      6  C   UNL     1      -2.069   1.778   0.196  0.00  0.00    +0.030 A 
ATOM      7  C   UNL     1      -0.998   0.902   0.033  0.00  0.00    +0.090 A 
ATOM      8  N   UNL     1       0.312   1.170   0.167  0.00  0.00    -0.226 NA
ATOM      9  C   UNL     1       0.896  -0.030  -0.101  0.00  0.00    +0.158 A 
ATOM     10  H   UNL     1       0.190  -2.013  -0.630  0.00  0.00    +0.167 HD
ENDROOT
BRANCH   9  11
ATOM     11  C   UNL     1       2.356  -0.221  -0.074  0.00  0.00    +0.113 A 
ATOM     12  C   UNL     1       2.985  -1.436  -0.344  0.00  0.00    +0.078 A 
ATOM     13  S   UNL     1       4.641  -1.193  -0.198  0.00  0.00    -0.083 S 
ATOM     14  C   UNL     1       4.495   0.432   0.198  0.00  0.00    +0.156 A 
ATOM     15  N   UNL     1       3.198   0.806   0.224  0.00  0.00    -0.244 NA
ENDBRANCH   9  11
TORSDOF 1
