REMARK  Name = 
REMARK  8 active torsions:
REMARK  status: ('A' for Active; 'I' for Inactive)
REMARK    1  A    between atoms: C_1  and  C_2
REMARK    2  A    between atoms: C_2  and  S_3
REMARK    3  A    between atoms: S_3  and  C_4
REMARK    4  A    between atoms: N_15  and  C_16
REMARK    5  A    between atoms: C_16  and  C_17
REMARK    6  A    between atoms: C_17  and  C_18
REMARK    7  A    between atoms: C_18  and  N_19
REMARK    8  A    between atoms: N_22  and  C_23
REMARK                            x       y       z     vdW  Elec       q    Type
REMARK                         _______ _______ _______ _____ _____    ______ ____
ROOT
ATOM      1  C   UNL     1      -3.806   0.816   2.159  0.00  0.00    +0.010 A 
ATOM      2  C   UNL     1      -2.760   0.538   1.271  0.00  0.00    +0.039 A 
ATOM      3  C   UNL     1      -2.776  -0.633   0.493  0.00  0.00    +0.049 A 
ATOM      4  C   UNL     1      -3.866  -1.516   0.618  0.00  0.00    +0.034 A 
ATOM      5  S   UNL     1      -3.993  -2.928  -0.480  0.00  0.00    -0.086 S 
ATOM      6  C   UNL     1      -2.278  -3.399  -0.253  0.00  0.00    +0.034 A 
ATOM      7  C   UNL     1      -1.943  -4.747  -0.091  0.00  0.00    +0.017 A 
ATOM      8  C   UNL     1      -0.601  -5.134  -0.066  0.00  0.00    +0.001 A 
ATOM      9  C   UNL     1       0.406  -4.177  -0.209  0.00  0.00    +0.002 A 
ATOM     10  C   UNL     1       0.076  -2.825  -0.345  0.00  0.00    +0.024 A 
ATOM     11  C   UNL     1      -1.272  -2.418  -0.346  0.00  0.00    +0.048 A 
ATOM     12  N   UNL     1      -1.638  -1.018  -0.314  0.00  0.00    -0.298 N 
ATOM     13  C   UNL     1      -4.892  -1.254   1.531  0.00  0.00    +0.018 A 
ATOM     14  C   UNL     1      -4.861  -0.091   2.302  0.00  0.00    +0.016 A 
ENDROOT
BRANCH   1  15
ATOM     15  S   UNL     1      -3.764   2.307   3.158  0.00  0.00    -0.125 S 
BRANCH  15  17
ATOM     16  C   UNL     1      -3.905   3.847   0.858  0.00  0.00    +0.015 C 
ATOM     17  C   UNL     1      -4.760   3.312   2.001  0.00  0.00    +0.071 C 
ENDBRANCH  15  17
ENDBRANCH   1  15
BRANCH  12  18
ATOM     18  C   UNL     1      -0.902  -0.031  -1.121  0.00  0.00    +0.112 C 
BRANCH  18  19
ATOM     19  C   UNL     1       0.261   0.606  -0.333  0.00  0.00    +0.035 C 
BRANCH  19  20
ATOM     20  C   UNL     1       1.497   0.819  -1.215  0.00  0.00    +0.086 C 
BRANCH  20  21
ATOM     21  N   UNL     1       2.593   1.412  -0.414  0.00  0.00    -0.300 NA
ATOM     22  C   UNL     1       3.446   0.396   0.244  0.00  0.00    +0.100 C 
ATOM     23  C   UNL     1       4.444  -0.260  -0.728  0.00  0.00    +0.099 C 
ATOM     24  N   UNL     1       5.240   0.769  -1.421  0.00  0.00    -0.303 NA
ATOM     25  C   UNL     1       6.189   0.132  -2.348  0.00  0.00    +0.105 C 
ATOM     26  C   UNL     1       4.353   1.684  -2.157  0.00  0.00    +0.099 C 
ATOM     27  C   UNL     1       3.405   2.383  -1.176  0.00  0.00    +0.100 C 
ENDBRANCH  20  21
ENDBRANCH  19  20
ENDBRANCH  18  19
ENDBRANCH  12  18
TORSDOF 6
