REMARK  Name = 
REMARK  3 active torsions:
REMARK  status: ('A' for Active; 'I' for Inactive)
REMARK    1  A    between atoms: P_2  and  N_3
REMARK    2  A    between atoms: P_2  and  N_6
REMARK    3  A    between atoms: P_2  and  N_9
REMARK                            x       y       z     vdW  Elec       q    Type
REMARK                         _______ _______ _______ _____ _____    ______ ____
ROOT
ATOM      1  S   UNL     1      -0.079   0.840  -2.205  0.00  0.00    -0.017 S 
ATOM      2  P   UNL     1       0.147   0.281  -0.576  0.00  0.00    +0.128 P 
ENDROOT
BRANCH   2   3
ATOM      3  N   UNL     1       0.256  -1.495  -0.646  0.00  0.00    -0.251 NA
ATOM      4  C   UNL     1      -1.091  -2.094  -0.779  0.00  0.00    +0.107 C 
ATOM      5  C   UNL     1      -0.402  -2.157   0.504  0.00  0.00    +0.107 C 
ENDBRANCH   2   3
BRANCH   2   6
ATOM      6  N   UNL     1      -1.127   0.803   0.565  0.00  0.00    -0.251 NA
ATOM      7  C   UNL     1      -1.368   2.260   0.457  0.00  0.00    +0.107 C 
ATOM      8  C   UNL     1      -2.361   1.325  -0.068  0.00  0.00    +0.107 C 
ENDBRANCH   2   6
BRANCH   2   9
ATOM      9  N   UNL     1       1.665   1.003  -0.004  0.00  0.00    -0.251 NA
ATOM     10  C   UNL     1       2.311   0.164   1.029  0.00  0.00    +0.107 C 
ATOM     11  C   UNL     1       2.833   0.157  -0.335  0.00  0.00    +0.107 C 
ENDBRANCH   2   9
TORSDOF 3
