REMARK  Name = 
REMARK  8 active torsions:
REMARK  status: ('A' for Active; 'I' for Inactive)
REMARK    1  A    between atoms: C_1  and  N_2
REMARK    2  A    between atoms: N_2  and  C_3
REMARK    3  A    between atoms: N_2  and  S_4
REMARK    4  A    between atoms: S_4  and  C_7
REMARK    5  A    between atoms: C_19  and  C_20
REMARK    6  A    between atoms: C_20  and  C_21
REMARK    7  A    between atoms: C_21  and  N_22
REMARK    8  A    between atoms: N_25  and  C_26
REMARK                            x       y       z     vdW  Elec       q    Type
REMARK                         _______ _______ _______ _____ _____    ______ ____
ROOT
ATOM      1  C   UNL     1      -3.116  -1.174  -1.333  0.00  0.00    +0.106 A 
ATOM      2  C   UNL     1      -2.017  -0.438  -0.869  0.00  0.00    +0.038 A 
ATOM      3  C   UNL     1      -1.879   0.921  -1.198  0.00  0.00    -0.002 A 
ATOM      4  C   UNL     1      -2.898   1.553  -1.940  0.00  0.00    +0.021 A 
ATOM      5  S   UNL     1      -2.758   3.301  -2.344  0.00  0.00    -0.088 S 
ATOM      6  C   UNL     1      -2.308   3.766  -0.664  0.00  0.00    +0.020 A 
ATOM      7  C   UNL     1      -2.905   4.877  -0.059  0.00  0.00    +0.015 A 
ATOM      8  C   UNL     1      -2.477   5.299   1.203  0.00  0.00    +0.001 A 
ATOM      9  C   UNL     1      -1.455   4.611   1.864  0.00  0.00    +0.001 A 
ATOM     10  C   UNL     1      -0.871   3.485   1.275  0.00  0.00    +0.009 A 
ATOM     11  C   UNL     1      -1.298   3.051   0.009  0.00  0.00    -0.004 A 
ATOM     12  C   UNL     1      -0.830   1.768  -0.569  0.00  0.00    -0.012 C 
ATOM     13  C   UNL     1       0.485   1.473  -0.592  0.00  0.00    -0.017 C 
ATOM     14  C   UNL     1      -4.010   0.825  -2.373  0.00  0.00    +0.017 A 
ATOM     15  C   UNL     1      -4.113  -0.536  -2.081  0.00  0.00    +0.029 A 
ENDROOT
BRANCH   1  16
ATOM     16  S   UNL     1      -3.288  -2.876  -0.912  0.00  0.00    +0.060 S 
ATOM     17  O   UNL     1      -3.838  -3.613  -2.101  0.00  0.00    -0.153 OA
ATOM     18  O   UNL     1      -1.941  -3.454  -0.574  0.00  0.00    -0.153 OA
BRANCH  16  20
ATOM     19  C   UNL     1      -3.828  -2.341   1.607  0.00  0.00    +0.131 C 
ATOM     20  N   UNL     1      -4.377  -3.048   0.443  0.00  0.00    -0.183 NA
ATOM     21  C   UNL     1      -4.543  -4.473   0.753  0.00  0.00    +0.131 C 
ENDBRANCH  16  20
ENDBRANCH   1  16
BRANCH  13  22
ATOM     22  C   UNL     1       1.069   0.293  -1.330  0.00  0.00    +0.043 C 
BRANCH  22  23
ATOM     23  C   UNL     1       2.598   0.396  -1.459  0.00  0.00    +0.088 C 
BRANCH  23  24
ATOM     24  N   UNL     1       3.269   0.501  -0.142  0.00  0.00    -0.300 NA
ATOM     25  C   UNL     1       3.081  -0.730   0.669  0.00  0.00    +0.100 C 
ATOM     26  C   UNL     1       4.176  -0.883   1.736  0.00  0.00    +0.099 C 
ATOM     27  N   UNL     1       5.533  -0.964   1.141  0.00  0.00    -0.303 NA
ATOM     28  C   UNL     1       6.008  -2.354   1.072  0.00  0.00    +0.105 C 
ATOM     29  C   UNL     1       5.637  -0.316  -0.186  0.00  0.00    +0.099 C 
ATOM     30  C   UNL     1       4.694   0.891  -0.291  0.00  0.00    +0.100 C 
ENDBRANCH  23  24
ENDBRANCH  22  23
ENDBRANCH  13  22
TORSDOF 5
