REMARK  Name = 
REMARK  6 active torsions:
REMARK  status: ('A' for Active; 'I' for Inactive)
REMARK    1  A    between atoms: C_1  and  S_2
REMARK    2  A    between atoms: S_2  and  C_3
REMARK    3  A    between atoms: N_14  and  C_15
REMARK    4  A    between atoms: C_15  and  C_16
REMARK    5  A    between atoms: C_16  and  C_17
REMARK    6  A    between atoms: N_22  and  C_23
REMARK                            x       y       z     vdW  Elec       q    Type
REMARK                         _______ _______ _______ _____ _____    ______ ____
ROOT
ATOM      1  C   UNL     1       3.864   1.458   0.859  0.00  0.00    +0.009 A 
ATOM      2  C   UNL     1       2.660   1.029   0.283  0.00  0.00    +0.039 A 
ATOM      3  C   UNL     1       2.593  -0.187  -0.424  0.00  0.00    +0.049 A 
ATOM      4  C   UNL     1       3.777  -0.936  -0.583  0.00  0.00    +0.034 A 
ATOM      5  S   UNL     1       3.804  -2.321  -1.717  0.00  0.00    -0.086 S 
ATOM      6  C   UNL     1       2.277  -3.007  -1.090  0.00  0.00    +0.034 A 
ATOM      7  C   UNL     1       2.174  -4.389  -0.905  0.00  0.00    +0.017 A 
ATOM      8  C   UNL     1       0.939  -4.960  -0.596  0.00  0.00    +0.001 A 
ATOM      9  C   UNL     1      -0.199  -4.157  -0.497  0.00  0.00    +0.002 A 
ATOM     10  C   UNL     1      -0.096  -2.772  -0.659  0.00  0.00    +0.024 A 
ATOM     11  C   UNL     1       1.156  -2.171  -0.914  0.00  0.00    +0.048 A 
ATOM     12  N   UNL     1       1.329  -0.727  -0.894  0.00  0.00    -0.298 N 
ATOM     13  C   UNL     1       4.970  -0.523   0.021  0.00  0.00    +0.018 A 
ATOM     14  C   UNL     1       5.014   0.672   0.741  0.00  0.00    +0.016 A 
ENDROOT
BRANCH   1  16
ATOM     15  C   UNL     1       3.547   2.289   3.346  0.00  0.00    +0.090 C 
ATOM     16  S   UNL     1       3.935   3.028   1.729  0.00  0.00    -0.129 S 
ENDBRANCH   1  16
BRANCH  12  17
ATOM     17  C   UNL     1       0.233   0.164  -1.319  0.00  0.00    +0.112 C 
BRANCH  17  18
ATOM     18  C   UNL     1      -0.721   0.518  -0.153  0.00  0.00    +0.038 C 
BRANCH  18  19
ATOM     19  C   UNL     1      -2.185   0.751  -0.632  0.00  0.00    +0.058 C 
ATOM     20  C   UNL     1      -2.207   1.986  -1.570  0.00  0.00    +0.019 C 
ATOM     21  C   UNL     1      -3.623   2.306  -2.050  0.00  0.00    +0.003 C 
ATOM     22  C   UNL     1      -4.554   2.469  -0.855  0.00  0.00    +0.015 C 
ATOM     23  C   UNL     1      -4.497   1.215   0.025  0.00  0.00    +0.084 C 
ATOM     24  N   UNL     1      -3.121   0.966   0.512  0.00  0.00    -0.302 NA
ATOM     25  C   UNL     1      -3.166  -0.202   1.411  0.00  0.00    +0.105 C 
ENDBRANCH  18  19
ENDBRANCH  17  18
ENDBRANCH  12  17
TORSDOF 4
