REMARK  Name = 
REMARK  7 active torsions:
REMARK  status: ('A' for Active; 'I' for Inactive)
REMARK    1  A    between atoms: C_1  and  C_2
REMARK    2  A    between atoms: C_2  and  C_3
REMARK    3  A    between atoms: C_3  and  C_4
REMARK    4  A    between atoms: C_4  and  C_5
REMARK    5  A    between atoms: C_4  and  C_6
REMARK    6  A    between atoms: C_6  and  C_7
REMARK    7  A    between atoms: C_7  and  C_8
REMARK                            x       y       z     vdW  Elec       q    Type
REMARK                         _______ _______ _______ _____ _____    ______ ____
ROOT
ATOM      1  C   UNL     1      -0.967   0.241  -0.411  0.00  0.00    +0.126 C 
ATOM      2  C   UNL     1      -0.729   1.396  -1.396  0.00  0.00    +0.234 C 
ATOM      3  O   UNL     1      -0.043   1.222  -2.441  0.00  0.00    -0.274 OA
ATOM      4  N   UNL     1      -1.195   2.717  -1.100  0.00  0.00    -0.267 N 
ATOM      5  C   UNL     1      -2.184   2.921  -0.093  0.00  0.00    +0.143 C 
ATOM      6  S   UNL     1      -2.692   4.434   0.269  0.00  0.00    -0.018 S 
ATOM      7  N   UNL     1      -2.805   1.790   0.514  0.00  0.00    -0.267 N 
ATOM      8  C   UNL     1      -2.360   0.468   0.193  0.00  0.00    +0.234 C 
ATOM      9  O   UNL     1      -3.114  -0.501   0.475  0.00  0.00    -0.274 OA
ATOM     10  H   UNL     1      -0.851   3.525  -1.666  0.00  0.00    +0.157 HD
ATOM     11  H   UNL     1      -3.642   1.919   1.126  0.00  0.00    +0.157 HD
ENDROOT
BRANCH   1  12
ATOM     12  C   UNL     1       0.118   0.370   0.739  0.00  0.00    +0.010 C 
ATOM     13  C   UNL     1      -0.122  -0.493   1.998  0.00  0.00    +0.009 C 
BRANCH  12  14
ATOM     14  C   UNL     1       1.616   0.374   0.302  0.00  0.00    +0.004 C 
BRANCH  14  16
ATOM     15  C   UNL     1       3.766  -0.850  -0.199  0.00  0.00    +0.004 C 
ATOM     16  C   UNL     1       2.270  -0.999   0.068  0.00  0.00    -0.003 C 
ENDBRANCH  14  16
ENDBRANCH  12  14
ENDBRANCH   1  12
BRANCH   1  17
ATOM     17  C   UNL     1      -0.947  -1.101  -1.233  0.00  0.00    +0.022 C 
ATOM     18  C   UNL     1      -1.000  -2.428  -0.461  0.00  0.00    +0.005 C 
ENDBRANCH   1  17
TORSDOF 4
