REMARK  Name = 
REMARK  0 active torsions:
REMARK  status: ('A' for Active; 'I' for Inactive)
REMARK                            x       y       z     vdW  Elec       q    Type
REMARK                         _______ _______ _______ _____ _____    ______ ____
ROOT
ATOM      1  N   UNL     1      -2.821  -0.158  -1.339  0.00  0.00    -0.329 N 
ATOM      2  C   UNL     1      -1.476  -0.006  -0.888  0.00  0.00    +0.193 A 
ATOM      3  N   UNL     1      -0.549   0.569  -1.721  0.00  0.00    -0.207 NA
ATOM      4  C   UNL     1       0.750   0.738  -1.337  0.00  0.00    +0.138 A 
ATOM      5  S   UNL     1       1.830   1.427  -2.353  0.00  0.00    -0.028 S 
ATOM      6  C   UNL     1       1.105   0.304  -0.065  0.00  0.00    +0.116 A 
ATOM      7  C   UNL     1       0.181  -0.261   0.746  0.00  0.00    +0.161 A 
ATOM      8  N   UNL     1      -1.109  -0.428   0.364  0.00  0.00    -0.311 N 
ATOM      9  N   UNL     1       0.723  -0.610   1.926  0.00  0.00    -0.218 NA
ATOM     10  C   UNL     1       2.019  -0.223   1.775  0.00  0.00    +0.199 A 
ATOM     11  N   UNL     1       2.284   0.340   0.569  0.00  0.00    -0.341 N 
ATOM     12  H   UNL     1      -3.550  -0.591  -0.730  0.00  0.00    +0.145 HD
ATOM     13  H   UNL     1      -3.550  -0.591  -0.730  0.00  0.00    +0.145 HD
ATOM     14  H   UNL     1      -1.800  -0.868   1.013  0.00  0.00    +0.170 HD
ATOM     15  H   UNL     1       3.196   0.711   0.224  0.00  0.00    +0.167 HD
ENDROOT
TORSDOF 0
