REMARK  Name = 
REMARK  9 active torsions:
REMARK  status: ('A' for Active; 'I' for Inactive)
REMARK    1  A    between atoms: C_1  and  C_2
REMARK    2  A    between atoms: C_3  and  C_7
REMARK    3  A    between atoms: C_7  and  C_20
REMARK    4  A    between atoms: C_8  and  C_9
REMARK    5  A    between atoms: C_9  and  C_10
REMARK    6  A    between atoms: C_10  and  N_11
REMARK    7  A    between atoms: C_15  and  C_17
REMARK    8  A    between atoms: C_17  and  O_18
REMARK    9  A    between atoms: C_21  and  C_22
REMARK                            x       y       z     vdW  Elec       q    Type
REMARK                         _______ _______ _______ _____ _____    ______ ____
ROOT
ATOM      1  C   UNL     1      -2.127   0.633   0.195  0.00  0.00    -0.001 C 
ATOM      2  C   UNL     1      -0.905   1.199   0.186  0.00  0.00    -0.016 C 
ENDROOT
BRANCH   1   5
ATOM      3  C   UNL     1      -3.555  -1.243   2.235  0.00  0.00    +0.045 C 
ATOM      4  C   UNL     1      -2.958  -1.684   0.932  0.00  0.00    -0.036 A 
ATOM      5  C   UNL     1      -2.305  -0.829   0.041  0.00  0.00    +0.023 A 
ATOM      6  S   UNL     1      -1.842  -1.728  -1.305  0.00  0.00    -0.096 S 
ATOM      7  C   UNL     1      -2.454  -3.200  -0.773  0.00  0.00    +0.046 A 
ATOM      8  C   UNL     1      -3.042  -3.006   0.469  0.00  0.00    +0.011 A 
ENDBRANCH   1   5
BRANCH   1   9
ATOM      9  C   UNL     1      -3.316   1.483   0.440  0.00  0.00    +0.023 A 
ATOM     10  C   UNL     1      -4.584   1.365  -0.143  0.00  0.00    -0.036 A 
ATOM     11  C   UNL     1      -4.954   0.356  -1.188  0.00  0.00    +0.045 C 
ATOM     12  C   UNL     1      -5.507   2.304   0.347  0.00  0.00    +0.011 A 
ATOM     13  C   UNL     1      -4.980   3.169   1.293  0.00  0.00    +0.046 A 
ATOM     14  S   UNL     1      -3.370   2.765   1.533  0.00  0.00    -0.096 S 
ENDBRANCH   1   9
BRANCH   2  15
ATOM     15  C   UNL     1       0.376   0.415   0.046  0.00  0.00    +0.043 C 
BRANCH  15  16
ATOM     16  C   UNL     1       1.606   1.316   0.252  0.00  0.00    +0.088 C 
BRANCH  16  17
ATOM     17  N   UNL     1       2.856   0.528   0.358  0.00  0.00    -0.301 NA
ATOM     18  C   UNL     1       3.934   1.326   1.013  0.00  0.00    +0.084 C 
ATOM     19  C   UNL     1       5.266   1.350   0.244  0.00  0.00    +0.016 C 
ATOM     20  C   UNL     1       5.699  -0.067  -0.140  0.00  0.00    +0.017 C 
ATOM     21  C   UNL     1       4.558  -0.870  -0.821  0.00  0.00    +0.112 C 
ATOM     22  C   UNL     1       3.253  -0.054  -0.947  0.00  0.00    +0.099 C 
BRANCH  21  23
ATOM     23  C   UNL     1       4.308  -2.174  -0.101  0.00  0.00    +0.309 C 
ATOM     24  O   UNL     1       3.852  -2.180   1.080  0.00  0.00    -0.251 OA
BRANCH  23  25
ATOM     25  O   UNL     1       4.600  -3.379  -0.738  0.00  0.00    -0.480 OA
ATOM     26  H   UNL     1       4.442  -4.264  -0.267  0.00  0.00    +0.295 HD
ENDBRANCH  23  25
ENDBRANCH  21  23
ENDBRANCH  16  17
ENDBRANCH  15  16
ENDBRANCH   2  15
TORSDOF 7
