REMARK  Name = 
REMARK  6 active torsions:
REMARK  status: ('A' for Active; 'I' for Inactive)
REMARK    1  A    between atoms: C_1  and  C_2
REMARK    2  A    between atoms: C_2  and  C_3
REMARK    3  A    between atoms: C_2  and  C_6
REMARK    4  A    between atoms: C_3  and  O_4
REMARK    5  A    between atoms: C_9  and  C_11
REMARK    6  A    between atoms: C_11  and  C_13
REMARK                            x       y       z     vdW  Elec       q    Type
REMARK                         _______ _______ _______ _____ _____    ______ ____
ROOT
ATOM      1  C   UNL     1      -1.944   0.069   0.084  0.00  0.00    +0.004 A 
ATOM      2  C   UNL     1      -1.994  -1.125   0.798  0.00  0.00    +0.013 A 
ATOM      3  C   UNL     1      -0.731  -1.614   1.154  0.00  0.00    +0.019 A 
ATOM      4  C   UNL     1       0.319  -0.816   0.709  0.00  0.00    +0.060 A 
ATOM      5  S   UNL     1      -0.332   0.511  -0.103  0.00  0.00    -0.089 S 
ENDROOT
BRANCH   1   7
ATOM      6  C   UNL     1      -4.050   1.277   0.692  0.00  0.00    +0.025 C 
ATOM      7  C   UNL     1      -3.115   0.850  -0.444  0.00  0.00    +0.131 C 
BRANCH   7   8
ATOM      8  C   UNL     1      -3.851   0.047  -1.478  0.00  0.00    +0.312 C 
ATOM      9  O   UNL     1      -3.721   0.326  -2.700  0.00  0.00    -0.250 OA
BRANCH   8  10
ATOM     10  O   UNL     1      -4.651  -1.028  -1.097  0.00  0.00    -0.480 OA
ATOM     11  H   UNL     1      -5.140  -1.583  -1.789  0.00  0.00    +0.295 HD
ENDBRANCH   8  10
ENDBRANCH   7   8
ENDBRANCH   1   7
BRANCH   4  12
ATOM     12  C   UNL     1       1.750  -1.056   0.985  0.00  0.00    +0.200 C 
ATOM     13  O   UNL     1       2.065  -1.870   1.895  0.00  0.00    -0.286 OA
BRANCH  12  14
ATOM     14  C   UNL     1       2.826  -0.357   0.246  0.00  0.00    +0.023 A 
ATOM     15  C   UNL     1       3.991   0.045   0.922  0.00  0.00    +0.012 A 
ATOM     16  C   UNL     1       5.022   0.691   0.232  0.00  0.00    +0.001 A 
ATOM     17  C   UNL     1       4.905   0.928  -1.140  0.00  0.00    +0.000 A 
ATOM     18  C   UNL     1       3.760   0.514  -1.825  0.00  0.00    +0.001 A 
ATOM     19  C   UNL     1       2.727  -0.131  -1.139  0.00  0.00    +0.012 A 
ENDBRANCH  12  14
ENDBRANCH   4  12
TORSDOF 5
