REMARK  Name = 
REMARK  13 active torsions:
REMARK  status: ('A' for Active; 'I' for Inactive)
REMARK    1  A    between atoms: C_1  and  C_2
REMARK    2  A    between atoms: C_2  and  C_3
REMARK    3  A    between atoms: C_3  and  S_4
REMARK    4  A    between atoms: S_4  and  C_5
REMARK    5  A    between atoms: N_11  and  C_12
REMARK    6  A    between atoms: C_14  and  O_15
REMARK    7  A    between atoms: O_15  and  C_16
REMARK    8  A    between atoms: C_16  and  C_17
REMARK    9  A    between atoms: C_17  and  O_18
REMARK   10  A    between atoms: C_19  and  O_20
REMARK   11  A    between atoms: C_21  and  O_22
REMARK   12  A    between atoms: N_24  and  C_25
REMARK   13  A    between atoms: C_27  and  C_28
REMARK                            x       y       z     vdW  Elec       q    Type
REMARK                         _______ _______ _______ _____ _____    ______ ____
ROOT
ATOM      1  C   UNL     1      -0.287   2.716  -1.937  0.00  0.00    +0.192 A 
ATOM      2  N   UNL     1       0.767   1.923  -1.575  0.00  0.00    -0.201 NA
ATOM      3  C   UNL     1       0.486   0.735  -0.993  0.00  0.00    +0.185 A 
ATOM      4  C   UNL     1      -0.772   0.315  -0.743  0.00  0.00    +0.171 A 
ATOM      5  N   UNL     1      -0.708  -0.850  -0.072  0.00  0.00    -0.124 NA
ATOM      6  N   UNL     1       0.592  -1.114   0.071  0.00  0.00    -0.063 NA
ATOM      7  N   UNL     1       1.338  -0.169  -0.496  0.00  0.00    -0.221 N 
ATOM      8  C   UNL     1      -1.861   1.107  -1.112  0.00  0.00    +0.153 A 
ATOM      9  N   UNL     1      -3.228   0.731  -0.882  0.00  0.00    -0.324 N 
ATOM     10  N   UNL     1      -1.578   2.305  -1.710  0.00  0.00    -0.205 NA
ATOM     11  H   UNL     1      -3.973   1.435  -1.088  0.00  0.00    +0.148 HD
ENDROOT
BRANCH   7  12
ATOM     12  C   UNL     1       2.799  -0.065  -0.421  0.00  0.00    +0.145 C 
ATOM     13  C   UNL     1       3.492  -1.420  -0.533  0.00  0.00    +0.064 C 
ATOM     14  C   UNL     1       4.825  -1.272   0.216  0.00  0.00    +0.151 C 
ATOM     15  C   UNL     1       4.693  -0.003   1.085  0.00  0.00    +0.174 C 
ATOM     16  C   UNL     1       3.248   0.492   0.920  0.00  0.00    +0.170 C 
BRANCH  15  17
ATOM     17  O   UNL     1       5.632   0.975   0.701  0.00  0.00    -0.387 OA
ATOM     18  H   UNL     1       5.449   1.219  -0.245  0.00  0.00    +0.210 HD
ENDBRANCH  15  17
BRANCH  16  19
ATOM     19  O   UNL     1       3.159   1.893   0.929  0.00  0.00    -0.387 OA
ATOM     20  H   UNL     1       3.265   2.175   1.876  0.00  0.00    +0.210 HD
ENDBRANCH  16  19
BRANCH  14  21
ATOM     21  O   UNL     1       5.062  -2.393   1.053  0.00  0.00    -0.372 OA
BRANCH  21  22
ATOM     22  C   UNL     1       5.599  -3.483   0.325  0.00  0.00    +0.188 C 
BRANCH  22  23
ATOM     23  C   UNL     1       7.083  -3.655   0.648  0.00  0.00    +0.184 C 
BRANCH  23  24
ATOM     24  O   UNL     1       7.831  -2.594   0.119  0.00  0.00    -0.393 OA
ATOM     25  H   UNL     1       7.778  -1.852   0.777  0.00  0.00    +0.209 HD
ENDBRANCH  23  24
ENDBRANCH  22  23
ENDBRANCH  21  22
ENDBRANCH  14  21
ENDBRANCH   7  12
BRANCH   9  26
ATOM     26  C   UNL     1      -3.628  -0.549  -0.303  0.00  0.00    +0.080 C 
ATOM     27  C   UNL     1      -3.543  -1.704  -1.297  0.00  0.00    +0.032 C 
ATOM     28  C   UNL     1      -4.901  -1.126  -0.914  0.00  0.00    +0.041 C 
BRANCH  28  29
ATOM     29  C   UNL     1      -5.773  -1.993  -0.023  0.00  0.00    -0.040 A 
ATOM     30  C   UNL     1      -7.155  -2.012  -0.277  0.00  0.00    +0.045 A 
ATOM     31  C   UNL     1      -8.016  -2.790   0.504  0.00  0.00    +0.159 A 
ATOM     32  F   UNL     1      -9.346  -2.796   0.242  0.00  0.00    -0.202 F 
ATOM     33  C   UNL     1      -7.506  -3.559   1.552  0.00  0.00    +0.158 A 
ATOM     34  F   UNL     1      -8.338  -4.315   2.310  0.00  0.00    -0.202 F 
ATOM     35  C   UNL     1      -6.135  -3.552   1.819  0.00  0.00    +0.041 A 
ATOM     36  C   UNL     1      -5.271  -2.776   1.041  0.00  0.00    +0.007 A 
ENDBRANCH  28  29
ENDBRANCH   9  26
BRANCH   1  37
ATOM     37  S   UNL     1       0.022   4.308  -2.697  0.00  0.00    -0.086 S 
BRANCH  37  38
ATOM     38  C   UNL     1       0.231   5.194  -1.113  0.00  0.00    +0.077 C 
BRANCH  38  40
ATOM     39  C   UNL     1      -0.959   6.330   0.795  0.00  0.00    +0.004 C 
ATOM     40  C   UNL     1      -1.127   5.582  -0.523  0.00  0.00    +0.008 C 
ENDBRANCH  38  40
ENDBRANCH  37  38
ENDBRANCH   1  37
TORSDOF 12
