REMARK  Name = 
REMARK  9 active torsions:
REMARK  status: ('A' for Active; 'I' for Inactive)
REMARK    1  A    between atoms: C_3  and  C_4
REMARK    2  A    between atoms: C_3  and  C_5
REMARK    3  A    between atoms: CA_6  and  C_23
REMARK    4  A    between atoms: CA_10  and  N_11
REMARK    5  A    between atoms: C_12  and  C_14
REMARK    6  A    between atoms: C_14  and  C_15
REMARK    7  A    between atoms: C_14  and  C_18
REMARK    8  A    between atoms: C_15  and  O_16
REMARK    9  A    between atoms: C_23  and  O_24
REMARK                            x       y       z     vdW  Elec       q    Type
REMARK                         _______ _______ _______ _____ _____    ______ ____
ROOT
ATOM      1  C   UNL     1      -1.677  -0.665  -0.154  0.00  0.00    +0.165 C 
ATOM      2  S   UNL     1      -0.792   0.396   1.043  0.00  0.00    -0.127 S 
ATOM      3  C   UNL     1      -2.107   1.699   0.930  0.00  0.00    +0.042 C 
ATOM      4  C   UNL     1      -3.114   1.432   2.067  0.00  0.00    +0.025 C 
ATOM      5  C   UNL     1      -1.457   3.075   1.135  0.00  0.00    +0.025 C 
ATOM      6  CA  UNL     1      -2.743   1.596  -0.494  0.00  0.00    +0.201 C 
ATOM      7  N   UNL     1      -2.450   0.255  -0.931  0.00  0.00    -0.271 N 
ATOM      8  C   UNL     1      -1.827  -0.299  -2.155  0.00  0.00    +0.240 C 
ATOM      9  O   UNL     1      -1.930  -0.074  -3.389  0.00  0.00    -0.273 OA
ATOM     10  CA  UNL     1      -0.960  -1.173  -1.304  0.00  0.00    +0.190 C 
ENDROOT
BRANCH  10  11
ATOM     11  N   UNL     1       0.445  -0.763  -1.362  0.00  0.00    -0.301 N 
ATOM     12  C   UNL     1       1.481  -1.560  -0.773  0.00  0.00    +0.232 C 
ATOM     13  O   UNL     1       1.236  -2.744  -0.411  0.00  0.00    -0.275 OA
ATOM     14  H   UNL     1       0.691   0.182  -1.737  0.00  0.00    +0.150 HD
BRANCH  12  15
ATOM     15  C   UNL     1       2.873  -0.995  -0.625  0.00  0.00    +0.213 C 
BRANCH  15  16
ATOM     16  C   UNL     1       3.516  -1.459   0.660  0.00  0.00    -0.018 A 
ATOM     17  C   UNL     1       3.548  -0.674   1.810  0.00  0.00    +0.050 A 
ATOM     18  S   UNL     1       4.289  -1.562   3.029  0.00  0.00    -0.105 S 
ATOM     19  C   UNL     1       4.564  -2.951   2.127  0.00  0.00    +0.045 A 
ATOM     20  C   UNL     1       4.077  -2.737   0.846  0.00  0.00    +0.012 A 
ENDBRANCH  15  16
BRANCH  15  21
ATOM     21  C   UNL     1       3.735  -1.327  -1.817  0.00  0.00    +0.321 C 
ATOM     22  O   UNL     1       3.575  -2.409  -2.445  0.00  0.00    -0.250 OA
BRANCH  21  23
ATOM     23  O   UNL     1       4.765  -0.470  -2.196  0.00  0.00    -0.480 OA
ATOM     24  H   UNL     1       4.942   0.393  -1.695  0.00  0.00    +0.295 HD
ENDBRANCH  21  23
ENDBRANCH  15  21
ENDBRANCH  12  15
ENDBRANCH  10  11
BRANCH   6  25
ATOM     25  C   UNL     1      -4.219   1.871  -0.564  0.00  0.00    +0.327 C 
ATOM     26  OXT UNL     1      -4.629   3.054  -0.701  0.00  0.00    -0.249 OA
BRANCH  25  27
ATOM     27  O   UNL     1      -5.136   0.831  -0.436  0.00  0.00    -0.479 OA
ATOM     28  H   UNL     1      -6.132   1.009  -0.466  0.00  0.00    +0.295 HD
ENDBRANCH  25  27
ENDBRANCH   6  25
TORSDOF 7
