REMARK  Name = 
REMARK  2 active torsions:
REMARK  status: ('A' for Active; 'I' for Inactive)
REMARK    1  A    between atoms: C_7  and  C_8
REMARK    2  A    between atoms: C_8  and  N_9
REMARK                            x       y       z     vdW  Elec       q    Type
REMARK                         _______ _______ _______ _____ _____    ______ ____
ROOT
ATOM      1  N   UNL     1       0.267  -0.936  -0.055  0.00  0.00    -0.294 NA
ATOM      2  C   UNL     1       1.162  -2.116  -0.125  0.00  0.00    +0.090 C 
ATOM      3  C   UNL     1       2.325  -1.856  -1.098  0.00  0.00    +0.058 C 
ATOM      4  C   UNL     1       2.917  -0.510  -0.835  0.00  0.00    -0.005 A 
ATOM      5  C   UNL     1       2.268   0.484  -0.129  0.00  0.00    -0.023 A 
ATOM      6  C   UNL     1       0.964   0.219   0.565  0.00  0.00    +0.120 C 
ATOM      7  C   UNL     1       2.987   1.684  -0.065  0.00  0.00    +0.013 A 
ATOM      8  C   UNL     1       4.190   1.635  -0.762  0.00  0.00    +0.046 A 
ATOM      9  S   UNL     1       4.359   0.099  -1.440  0.00  0.00    -0.101 S 
ENDROOT
BRANCH   1  10
ATOM     10  C   UNL     1      -0.961  -1.270   0.696  0.00  0.00    +0.121 C 
BRANCH  10  17
ATOM     11 CL   UNL     1      -2.230  -1.102  -2.156  0.00  0.00    -0.083 Cl
ATOM     12  C   UNL     1      -2.647  -0.072  -0.790  0.00  0.00    +0.045 A 
ATOM     13  C   UNL     1      -3.619   0.919  -0.975  0.00  0.00    +0.020 A 
ATOM     14  C   UNL     1      -3.975   1.762   0.080  0.00  0.00    +0.001 A 
ATOM     15  C   UNL     1      -3.362   1.621   1.326  0.00  0.00    +0.000 A 
ATOM     16  C   UNL     1      -2.392   0.634   1.522  0.00  0.00    +0.006 A 
ATOM     17  C   UNL     1      -2.027  -0.225   0.470  0.00  0.00    -0.015 A 
ENDBRANCH  10  17
ENDBRANCH   1  10
TORSDOF 2
