REMARK  Name = 
REMARK  18 active torsions:
REMARK  status: ('A' for Active; 'I' for Inactive)
REMARK    1  A    between atoms: C_4  and  N_40
REMARK    2  A    between atoms: C_6  and  N_7
REMARK    3  A    between atoms: C_8  and  C_10
REMARK    4  A    between atoms: C_10  and  N_11
REMARK    5  A    between atoms: N_11  and  C_12
REMARK    6  A    between atoms: C_12  and  C_13
REMARK    7  A    between atoms: C_12  and  C_14
REMARK    8  A    between atoms: C_12  and  C_15
REMARK    9  A    between atoms: C_16  and  O_17
REMARK   10  A    between atoms: C_22  and  O_23
REMARK   11  A    between atoms: C_24  and  O_25
REMARK   12  A    between atoms: C_28  and  C_29
REMARK   13  A    between atoms: C_32  and  O_33
REMARK   14  A    between atoms: C_34  and  N_35
REMARK   15  A    between atoms: N_35  and  C_36
REMARK   16  A    between atoms: N_35  and  C_37
REMARK   17  A    between atoms: N_40  and  C_41
REMARK   18  A    between atoms: N_40  and  C_42
REMARK                            x       y       z     vdW  Elec       q    Type
REMARK                         _______ _______ _______ _____ _____    ______ ____
ROOT
ATOM      1  C   UNL     1      -2.098  -0.349   0.567  0.00  0.00    +0.031 C 
ATOM      2  C   UNL     1      -1.279   0.841   1.095  0.00  0.00    +0.046 C 
ATOM      3  C   UNL     1       0.215   0.646   0.921  0.00  0.00    -0.011 A 
ATOM      4  C   UNL     1       1.114   1.296   1.794  0.00  0.00    +0.035 A 
ATOM      5  C   UNL     1       2.491   1.169   1.602  0.00  0.00    +0.050 A 
ATOM      6  C   UNL     1       3.000   0.428   0.536  0.00  0.00    +0.078 A 
ATOM      7  C   UNL     1       2.118  -0.257  -0.327  0.00  0.00    +0.149 A 
ATOM      8  C   UNL     1       0.718  -0.121  -0.160  0.00  0.00    +0.070 A 
ATOM      9  C   UNL     1      -0.241  -0.795  -1.083  0.00  0.00    +0.197 C 
ATOM     10  O   UNL     1       0.181  -1.566  -1.988  0.00  0.00    -0.287 OA
ATOM     11  C   UNL     1      -1.702  -0.644  -0.864  0.00  0.00    +0.044 C 
ATOM     12  C   UNL     1      -2.619  -0.881  -1.843  0.00  0.00    +0.141 C 
ATOM     13  C   UNL     1      -4.119  -1.004  -1.568  0.00  0.00    +0.190 C 
ATOM     14  C   UNL     1      -4.853   0.191  -2.171  0.00  0.00    +0.211 C 
ATOM     15  O   UNL     1      -4.594   0.534  -3.357  0.00  0.00    -0.288 OA
ATOM     16  C   UNL     1      -5.918   0.914  -1.426  0.00  0.00    +0.121 C 
ATOM     17  C   UNL     1      -6.401   0.406  -0.273  0.00  0.00    +0.127 C 
ATOM     18  C   UNL     1      -5.948  -0.954   0.241  0.00  0.00    +0.129 C 
ATOM     19  C   UNL     1      -4.421  -1.110  -0.046  0.00  0.00    +0.061 C 
ATOM     20  C   UNL     1      -3.597  -0.070   0.734  0.00  0.00    +0.018 C 
ENDROOT
BRANCH  16  21
ATOM     21  C   UNL     1      -6.410   2.218  -1.937  0.00  0.00    +0.248 C 
ATOM     22  N   UNL     1      -5.508   3.164  -2.514  0.00  0.00    -0.325 N 
ATOM     23  O   UNL     1      -7.633   2.511  -1.849  0.00  0.00    -0.270 OA
ATOM     24  H   UNL     1      -4.476   2.999  -2.509  0.00  0.00    +0.145 HD
ATOM     25  H   UNL     1      -5.866   4.071  -2.885  0.00  0.00    +0.145 HD
ENDBRANCH  16  21
BRANCH   6  26
ATOM     26  N   UNL     1       4.422   0.384   0.346  0.00  0.00    -0.281 N 
ATOM     27  C   UNL     1       5.050   0.826  -0.867  0.00  0.00    +0.231 C 
ATOM     28  O   UNL     1       4.357   1.300  -1.808  0.00  0.00    -0.274 OA
ATOM     29  H   UNL     1       5.028   0.225   1.183  0.00  0.00    +0.155 HD
BRANCH  27  30
ATOM     30  C   UNL     1       6.540   0.753  -1.011  0.00  0.00    +0.178 C 
BRANCH  30  31
ATOM     31  N   UNL     1       7.002  -0.614  -0.713  0.00  0.00    -0.303 NA
ATOM     32  H   UNL     1       6.572  -1.258  -1.422  0.00  0.00    +0.123 HD
BRANCH  31  33
ATOM     33  C   UNL     1       8.475  -0.804  -0.725  0.00  0.00    +0.011 C 
ATOM     34  C   UNL     1       9.157   0.064   0.357  0.00  0.00    +0.027 C 
ATOM     35  C   UNL     1       8.757  -2.284  -0.393  0.00  0.00    +0.027 C 
ATOM     36  C   UNL     1       9.080  -0.489  -2.113  0.00  0.00    +0.027 C 
ENDBRANCH  31  33
ENDBRANCH  30  31
ENDBRANCH  27  30
ENDBRANCH   6  26
BRANCH  18  37
ATOM     37  N   UNL     1      -6.753  -2.057  -0.369  0.00  0.00    -0.299 NA
ATOM     38  C   UNL     1      -6.432  -3.365   0.244  0.00  0.00    +0.105 C 
ATOM     39  C   UNL     1      -8.206  -1.822  -0.227  0.00  0.00    +0.105 C 
ENDBRANCH  18  37
BRANCH   4  40
ATOM     40  N   UNL     1       0.637   2.107   2.879  0.00  0.00    -0.336 N 
ATOM     41  C   UNL     1       0.742   1.609   4.248  0.00  0.00    +0.129 C 
ATOM     42  C   UNL     1       0.331   3.515   2.632  0.00  0.00    +0.129 C 
ENDBRANCH   4  40
BRANCH   7  43
ATOM     43  O   UNL     1       2.619  -1.093  -1.329  0.00  0.00    -0.504 OA
ATOM     44  H   UNL     1       3.599  -1.333  -1.411  0.00  0.00    +0.292 HD
ENDBRANCH   7  43
BRANCH  12  45
ATOM     45  O   UNL     1      -2.229  -0.989  -3.184  0.00  0.00    -0.507 OA
ATOM     46  H   UNL     1      -1.343  -0.655  -3.542  0.00  0.00    +0.292 HD
ENDBRANCH  12  45
BRANCH  13  47
ATOM     47  O   UNL     1      -4.588  -2.188  -2.174  0.00  0.00    -0.373 OA
ATOM     48  H   UNL     1      -4.511  -2.096  -3.160  0.00  0.00    +0.211 HD
ENDBRANCH  13  47
BRANCH  17  49
ATOM     49  O   UNL     1      -7.334   1.131   0.471  0.00  0.00    -0.509 OA
ATOM     50  H   UNL     1      -7.708   0.776   1.343  0.00  0.00    +0.292 HD
ENDBRANCH  17  49
TORSDOF 11
