REMARK  Name = 
REMARK  8 active torsions:
REMARK  status: ('A' for Active; 'I' for Inactive)
REMARK    1  A    between atoms: O_1  and  P_2
REMARK    2  A    between atoms: P_2  and  O_3
REMARK    3  A    between atoms: P_2  and  C_5
REMARK    4  A    between atoms: C_5  and  S_6
REMARK    5  A    between atoms: C_5  and  P_14
REMARK    6  A    between atoms: S_6  and  C_7
REMARK    7  A    between atoms: P_14  and  O_15
REMARK    8  A    between atoms: P_14  and  O_16
REMARK                            x       y       z     vdW  Elec       q    Type
REMARK                         _______ _______ _______ _____ _____    ______ ____
ROOT
ATOM      1  C   UNL     1      -0.931   0.048   0.796  0.00  0.00    +0.278 C 
ENDROOT
BRANCH   1   2
ATOM      2  P   UNL     1      -1.184  -1.105   2.183  0.00  0.00    +0.353 P 
ATOM      3  O   UNL     1      -1.473  -0.334   3.453  0.00  0.00    -0.257 OA
BRANCH   2   4
ATOM      4  O   UNL     1      -2.472  -2.149   1.841  0.00  0.00    -0.323 OA
ATOM      5  H   UNL     1      -3.281  -1.677   2.162  0.00  0.00    +0.220 HD
ENDBRANCH   2   4
BRANCH   2   6
ATOM      6  O   UNL     1       0.223  -2.019   2.397  0.00  0.00    -0.323 OA
ATOM      7  H   UNL     1      -0.002  -2.666   3.113  0.00  0.00    +0.220 HD
ENDBRANCH   2   6
ENDBRANCH   1   2
BRANCH   1   8
ATOM      8  P   UNL     1      -2.429   1.040   0.502  0.00  0.00    +0.353 P 
ATOM      9  O   UNL     1      -2.801   1.801   1.755  0.00  0.00    -0.257 OA
BRANCH   8  10
ATOM     10  O   UNL     1      -2.135   2.140  -0.749  0.00  0.00    -0.323 OA
ATOM     11  H   UNL     1      -1.947   1.576  -1.541  0.00  0.00    +0.220 HD
ENDBRANCH   8  10
BRANCH   8  12
ATOM     12  O   UNL     1      -3.708   0.025   0.059  0.00  0.00    -0.323 OA
ATOM     13  H   UNL     1      -4.456   0.638  -0.155  0.00  0.00    +0.220 HD
ENDBRANCH   8  12
ENDBRANCH   1   8
BRANCH   1  14
ATOM     14  S   UNL     1       0.461   1.166   1.192  0.00  0.00    -0.097 S 
BRANCH  14  15
ATOM     15  C   UNL     1       1.484   0.664  -0.194  0.00  0.00    +0.009 A 
ATOM     16  C   UNL     1       2.380  -0.404  -0.054  0.00  0.00    +0.016 A 
ATOM     17  C   UNL     1       3.172  -0.800  -1.137  0.00  0.00    +0.021 A 
ATOM     18  C   UNL     1       3.073  -0.128  -2.360  0.00  0.00    +0.041 A 
ATOM     19 CL   UNL     1       4.065  -0.625  -3.718  0.00  0.00    -0.084 Cl
ATOM     20  C   UNL     1       2.181   0.942  -2.499  0.00  0.00    +0.021 A 
ATOM     21  C   UNL     1       1.389   1.339  -1.417  0.00  0.00    +0.016 A 
ENDBRANCH  14  15
ENDBRANCH   1  14
TORSDOF 8
