REMARK  Name = 
REMARK  10 active torsions:
REMARK  status: ('A' for Active; 'I' for Inactive)
REMARK    1  A    between atoms: C_1  and  C_2
REMARK    2  A    between atoms: C_2  and  C_3
REMARK    3  A    between atoms: C_2  and  C_4
REMARK    4  A    between atoms: C_2  and  N_5
REMARK    5  A    between atoms: N_5  and  C_6
REMARK    6  A    between atoms: C_6  and  C_7
REMARK    7  A    between atoms: C_7  and  O_8
REMARK    8  A    between atoms: C_7  and  C_9
REMARK    9  A    between atoms: C_9  and  O_10
REMARK   10  A    between atoms: O_10  and  C_11
REMARK                            x       y       z     vdW  Elec       q    Type
REMARK                         _______ _______ _______ _____ _____    ______ ____
ROOT
ATOM      1  O   UNL     1       1.137  -0.462   0.678  0.00  0.00    -0.471 OA
ENDROOT
BRANCH   1   2
ATOM      2  C   UNL     1       1.945  -1.371   1.365  0.00  0.00    +0.265 A 
ATOM      3  N   UNL     1       1.424  -2.240   2.272  0.00  0.00    -0.153 NA
ATOM      4  S   UNL     1       2.775  -3.073   2.720  0.00  0.00    +0.121 S 
ATOM      5  N   UNL     1       4.009  -2.417   1.845  0.00  0.00    -0.172 NA
ATOM      6  C   UNL     1       3.354  -1.459   1.137  0.00  0.00    +0.194 A 
ATOM      7  N   UNL     1       4.067  -0.611   0.215  0.00  0.00    -0.306 N 
ATOM      8  C   UNL     1       5.079  -1.199  -0.670  0.00  0.00    +0.135 C 
ATOM      9  C   UNL     1       6.166  -0.167  -0.982  0.00  0.00    +0.178 C 
ATOM     10  O   UNL     1       5.595   1.040  -1.449  0.00  0.00    -0.377 OA
ATOM     11  C   UNL     1       4.834   1.636  -0.416  0.00  0.00    +0.178 C 
ATOM     12  C   UNL     1       3.629   0.763  -0.054  0.00  0.00    +0.135 C 
ENDBRANCH   1   2
BRANCH   1  13
ATOM     13  C   UNL     1      -0.266  -0.357   0.893  0.00  0.00    +0.263 C 
BRANCH  13  14
ATOM     14  C   UNL     1      -0.840   0.753  -0.001  0.00  0.00    +0.166 C 
BRANCH  14  15
ATOM     15  O   UNL     1      -0.133   1.952   0.197  0.00  0.00    -0.387 OA
ATOM     16  H   UNL     1      -0.259   2.221   1.145  0.00  0.00    +0.210 HD
ENDBRANCH  14  15
BRANCH  14  17
ATOM     17  C   UNL     1      -2.345   0.979   0.234  0.00  0.00    +0.116 C 
BRANCH  17  18
ATOM     18  N   UNL     1      -3.121  -0.190  -0.220  0.00  0.00    -0.309 NA
ATOM     19  H   UNL     1      -3.049  -0.918   0.530  0.00  0.00    +0.123 HD
BRANCH  18  21
ATOM     20  C   UNL     1      -4.726   0.930  -1.760  0.00  0.00    +0.027 C 
ATOM     21  C   UNL     1      -4.558   0.068  -0.489  0.00  0.00    +0.011 C 
ATOM     22  C   UNL     1      -5.256   0.749   0.711  0.00  0.00    +0.027 C 
ATOM     23  C   UNL     1      -5.247  -1.289  -0.748  0.00  0.00    +0.027 C 
ENDBRANCH  18  21
ENDBRANCH  17  18
ENDBRANCH  14  17
ENDBRANCH  13  14
ENDBRANCH   1  13
TORSDOF 7
