REMARK  Name = 
REMARK  7 active torsions:
REMARK  status: ('A' for Active; 'I' for Inactive)
REMARK    1  A    between atoms: C_1  and  C_2
REMARK    2  A    between atoms: C_2  and  S_3
REMARK    3  A    between atoms: S_3  and  C_6
REMARK    4  A    between atoms: C_6  and  C_7
REMARK    5  A    between atoms: C_7  and  N_8
REMARK    6  A    between atoms: C_9  and  C_10
REMARK    7  A    between atoms: C_13  and  N_14
REMARK                            x       y       z     vdW  Elec       q    Type
REMARK                         _______ _______ _______ _____ _____    ______ ____
ROOT
ATOM      1  N   UNL     1      -1.944   0.302   0.229  0.00  0.00    -0.308 N 
ATOM      2  C   UNL     1      -2.815   0.053  -0.779  0.00  0.00    +0.108 A 
ATOM      3  C   UNL     1      -2.764  -1.153  -1.665  0.00  0.00    +0.086 C 
ATOM      4  N   UNL     1      -3.768   1.002  -0.903  0.00  0.00    -0.239 NA
ATOM      5  C   UNL     1      -3.479   1.899   0.060  0.00  0.00    +0.164 A 
ATOM      6  C   UNL     1      -2.360   1.481   0.748  0.00  0.00    +0.216 A 
ENDROOT
BRANCH   6   7
ATOM      7  N   UNL     1      -1.746   2.200   1.831  0.00  0.00    +0.075 N 
ATOM      8  O   UNL     1      -0.542   1.809   2.366  0.00  0.00    -0.125 OA
ATOM      9  O   UNL     1      -2.287   3.237   2.269  0.00  0.00    -0.125 OA
ENDBRANCH   6   7
BRANCH   1  10
ATOM     10  C   UNL     1      -0.786  -0.515   0.607  0.00  0.00    +0.147 C 
BRANCH  10  11
ATOM     11  C   UNL     1       0.472  -0.012  -0.104  0.00  0.00    +0.187 C 
BRANCH  11  12
ATOM     12  S   UNL     1       1.901  -0.967   0.378  0.00  0.00    -0.030 S 
ATOM     13  O   UNL     1       1.685  -2.412   0.024  0.00  0.00    -0.174 OA
ATOM     14  O   UNL     1       2.114  -0.841   1.861  0.00  0.00    -0.174 OA
BRANCH  12  16
ATOM     15  C   UNL     1       4.583  -1.128  -0.109  0.00  0.00    +0.028 C 
ATOM     16  C   UNL     1       3.332  -0.345  -0.488  0.00  0.00    +0.162 C 
ENDBRANCH  12  16
ENDBRANCH  11  12
ENDBRANCH  10  11
ENDBRANCH   1  10
TORSDOF 5
