REMARK  Name = 
REMARK  6 active torsions:
REMARK  status: ('A' for Active; 'I' for Inactive)
REMARK    1  A    between atoms: C_3  and  C_4
REMARK    2  A    between atoms: C_4  and  O_5
REMARK    3  A    between atoms: O_5  and  C_6
REMARK    4  A    between atoms: C_6  and  C_7
REMARK    5  A    between atoms: C_6  and  C_13
REMARK    6  A    between atoms: C_7  and  N_8
REMARK                            x       y       z     vdW  Elec       q    Type
REMARK                         _______ _______ _______ _____ _____    ______ ____
ROOT
ATOM      1  C   UNL     1      -0.685  -0.140  -0.512  0.00  0.00    +0.170 C 
ENDROOT
BRANCH   1   2
ATOM      2  C   UNL     1      -0.527   1.149  -1.304  0.00  0.00    +0.001 A 
ATOM      3  C   UNL     1      -1.648   1.867  -1.784  0.00  0.00    +0.048 A 
ATOM      4 CL   UNL     1      -3.300   1.331  -1.493  0.00  0.00    -0.083 Cl
ATOM      5  C   UNL     1      -1.462   3.038  -2.530  0.00  0.00    +0.040 A 
ATOM      6  C   UNL     1      -0.175   3.497  -2.819  0.00  0.00    +0.042 A 
ATOM      7 CL   UNL     1       0.045   4.963  -3.756  0.00  0.00    -0.083 Cl
ATOM      8  C   UNL     1       0.936   2.782  -2.371  0.00  0.00    +0.020 A 
ATOM      9  C   UNL     1       0.764   1.613  -1.626  0.00  0.00    +0.009 A 
ENDBRANCH   1   2
BRANCH   1  10
ATOM     10  O   UNL     1       0.359  -0.276   0.438  0.00  0.00    -0.366 OA
BRANCH  10  11
ATOM     11  C   UNL     1       0.042   0.409   1.631  0.00  0.00    +0.198 C 
BRANCH  11  14
ATOM     12 CL   UNL     1       0.665  -2.312   3.343  0.00  0.00    -0.075 Cl
ATOM     13  C   UNL     1       1.548  -0.796   3.295  0.00  0.00    +0.083 A 
ATOM     14  C   UNL     1       1.218   0.335   2.553  0.00  0.00    +0.004 A 
ATOM     15  C   UNL     1       2.151   1.374   2.694  0.00  0.00    +0.015 A 
ATOM     16  C   UNL     1       3.195   1.071   3.558  0.00  0.00    +0.047 A 
ATOM     17  S   UNL     1       2.972  -0.494   4.131  0.00  0.00    -0.085 S 
ENDBRANCH  11  14
ENDBRANCH  10  11
ENDBRANCH   1  10
BRANCH   1  18
ATOM     18  C   UNL     1      -0.637  -1.336  -1.470  0.00  0.00    +0.159 C 
BRANCH  18  19
ATOM     19  N   UNL     1      -0.827  -2.584  -0.734  0.00  0.00    -0.334 N 
ATOM     20  C   UNL     1      -1.994  -3.120  -0.344  0.00  0.00    +0.107 A 
ATOM     21  C   UNL     1      -1.714  -4.248   0.394  0.00  0.00    +0.130 A 
ATOM     22  N   UNL     1      -0.377  -4.414   0.477  0.00  0.00    -0.244 NA
ATOM     23  C   UNL     1       0.132  -3.377  -0.219  0.00  0.00    +0.199 A 
ENDBRANCH  18  19
ENDBRANCH   1  18
TORSDOF 6
