REMARK  Name = 
REMARK  8 active torsions:
REMARK  status: ('A' for Active; 'I' for Inactive)
REMARK    1  A    between atoms: C_1  and  N_2
REMARK    2  A    between atoms: N_2  and  C_3
REMARK    3  A    between atoms: C_6  and  O_12
REMARK    4  A    between atoms: O_12  and  C_13
REMARK    5  A    between atoms: C_13  and  C_15
REMARK    6  A    between atoms: C_15  and  O_16
REMARK    7  A    between atoms: C_15  and  C_17
REMARK    8  A    between atoms: C_15  and  C_22
REMARK                            x       y       z     vdW  Elec       q    Type
REMARK                         _______ _______ _______ _____ _____    ______ ____
ROOT
ATOM      1  C   UNL     1      -1.377   0.033   0.445  0.00  0.00    +0.350 C 
ATOM      2  O   UNL     1      -1.315  -0.062   1.703  0.00  0.00    -0.247 OA
ENDROOT
BRANCH   1   3
ATOM      3  O   UNL     1      -0.273  -0.318  -0.342  0.00  0.00    -0.459 OA
BRANCH   3   9
ATOM      4  C   UNL     1       5.160   0.403  -0.817  0.00  0.00    -0.091 C 
ATOM      5  N   UNL     1       3.845  -0.102  -0.321  0.00  0.00    +0.384 N 
ATOM      6  C   UNL     1       4.157  -1.060   0.779  0.00  0.00    -0.091 C 
ATOM      7  C   UNL     1       3.051  -0.666  -1.434  0.00  0.00    -0.030 C 
ATOM      8  C   UNL     1       1.810  -1.447  -0.914  0.00  0.00    +0.032 C 
ATOM      9  C   UNL     1       0.994  -0.704   0.195  0.00  0.00    +0.174 C 
ATOM     10  C   UNL     1       1.710   0.535   0.839  0.00  0.00    +0.032 C 
ATOM     11  C   UNL     1       2.967   1.025   0.064  0.00  0.00    -0.030 C 
ATOM     12  C   UNL     1       2.532   1.672  -1.272  0.00  0.00    +0.133 C 
ATOM     13  O   UNL     1       1.371   1.163  -1.886  0.00  0.00    -0.372 OA
ATOM     14  C   UNL     1       2.586   0.557  -2.259  0.00  0.00    +0.133 C 
ENDBRANCH   3   9
ENDBRANCH   1   3
BRANCH   1  15
ATOM     15  C   UNL     1      -2.666   0.455  -0.232  0.00  0.00    +0.226 C 
BRANCH  15  16
ATOM     16  C   UNL     1      -3.507  -0.754  -0.599  0.00  0.00    +0.037 A 
ATOM     17  C   UNL     1      -3.517  -1.998   0.032  0.00  0.00    +0.015 A 
ATOM     18  C   UNL     1      -4.477  -2.877  -0.482  0.00  0.00    +0.008 A 
ATOM     19  C   UNL     1      -5.242  -2.334  -1.504  0.00  0.00    +0.045 A 
ATOM     20  S   UNL     1      -4.724  -0.756  -1.764  0.00  0.00    -0.098 S 
ENDBRANCH  15  16
BRANCH  15  21
ATOM     21  C   UNL     1      -3.456   1.363   0.686  0.00  0.00    +0.037 A 
ATOM     22  C   UNL     1      -4.290   0.971   1.733  0.00  0.00    +0.015 A 
ATOM     23  C   UNL     1      -4.804   2.044   2.470  0.00  0.00    +0.008 A 
ATOM     24  C   UNL     1      -4.368   3.285   2.029  0.00  0.00    +0.045 A 
ATOM     25  S   UNL     1      -3.337   3.044   0.724  0.00  0.00    -0.098 S 
ENDBRANCH  15  21
BRANCH  15  26
ATOM     26  O   UNL     1      -2.357   1.181  -1.400  0.00  0.00    -0.369 OA
ATOM     27  H   UNL     1      -1.929   0.564  -2.050  0.00  0.00    +0.212 HD
ENDBRANCH  15  26
ENDBRANCH   1  15
TORSDOF 6
