REMARK  Name = 
REMARK  15 active torsions:
REMARK  status: ('A' for Active; 'I' for Inactive)
REMARK    1  A    between atoms: C_1  and  C_2
REMARK    2  A    between atoms: C_2  and  C_3
REMARK    3  A    between atoms: C_3  and  C_4
REMARK    4  A    between atoms: C_4  and  C_5
REMARK    5  A    between atoms: C_5  and  C_6
REMARK    6  A    between atoms: C_6  and  C_7
REMARK    7  A    between atoms: C_16  and  C_17
REMARK    8  A    between atoms: C_17  and  C_18
REMARK    9  A    between atoms: C_17  and  C_20
REMARK   10  A    between atoms: C_18  and  C_19
REMARK   11  A    between atoms: C_22  and  N_23
REMARK   12  A    between atoms: N_23  and  S_24
REMARK   13  A    between atoms: S_24  and  C_27
REMARK   14  A    between atoms: C_30  and  C_33
REMARK   15  A    between atoms: C_40  and  O_41
REMARK                            x       y       z     vdW  Elec       q    Type
REMARK                         _______ _______ _______ _____ _____    ______ ____
ROOT
ATOM      1  C   UNL     1       0.252  -2.778   1.778  0.00  0.00    +0.059 C 
ENDROOT
BRANCH   1   6
ATOM      2  C   UNL     1      -2.756   0.141   0.341  0.00  0.00    +0.121 C 
ATOM      3  C   UNL     1      -3.048  -1.361   0.089  0.00  0.00    +0.127 C 
ATOM      4  C   UNL     1      -1.815  -2.185   0.308  0.00  0.00    +0.170 C 
ATOM      5  O   UNL     1      -1.631  -3.217  -0.391  0.00  0.00    -0.292 OA
ATOM      6  C   UNL     1      -0.863  -1.813   1.383  0.00  0.00    +0.082 C 
ATOM      7  C   UNL     1      -1.044  -0.628   2.003  0.00  0.00    +0.287 C 
ATOM      8  O   UNL     1      -2.062   0.249   1.592  0.00  0.00    -0.457 OA
BRANCH   7   9
ATOM      9  O   UNL     1      -0.233  -0.248   3.068  0.00  0.00    -0.480 OA
ATOM     10  H   UNL     1      -0.368   0.645   3.528  0.00  0.00    +0.295 HD
ENDBRANCH   7   9
BRANCH   2  11
ATOM     11  C   UNL     1      -1.809   0.743  -0.746  0.00  0.00    +0.048 C 
BRANCH  11  13
ATOM     12  C   UNL     1      -1.357   1.391  -3.145  0.00  0.00    +0.004 C 
ATOM     13  C   UNL     1      -2.414   0.916  -2.151  0.00  0.00    +0.000 C 
ENDBRANCH  11  13
ENDBRANCH   2  11
BRANCH   2  14
ATOM     14  C   UNL     1      -4.067   0.976   0.491  0.00  0.00    +0.053 C 
BRANCH  14  15
ATOM     15  C   UNL     1      -5.264   0.525  -0.372  0.00  0.00    +0.039 C 
BRANCH  15  16
ATOM     16  C   UNL     1      -6.378   1.537  -0.300  0.00  0.00    -0.047 A 
ATOM     17  C   UNL     1      -6.466   2.565  -1.255  0.00  0.00    +0.003 A 
ATOM     18  C   UNL     1      -7.484   3.521  -1.168  0.00  0.00    +0.000 A 
ATOM     19  C   UNL     1      -8.411   3.465  -0.123  0.00  0.00    +0.000 A 
ATOM     20  C   UNL     1      -8.320   2.455   0.840  0.00  0.00    +0.000 A 
ATOM     21  C   UNL     1      -7.305   1.496   0.755  0.00  0.00    +0.003 A 
ENDBRANCH  15  16
ENDBRANCH  14  15
ENDBRANCH   2  14
ENDBRANCH   1   6
BRANCH   1  22
ATOM     22  C   UNL     1       1.623  -2.148   1.566  0.00  0.00    -0.038 A 
ATOM     23  C   UNL     1       2.134  -2.067   0.257  0.00  0.00    +0.028 A 
ATOM     24  C   UNL     1       3.409  -1.538   0.009  0.00  0.00    +0.048 A 
ATOM     25  C   UNL     1       4.163  -1.034   1.081  0.00  0.00    +0.024 A 
ATOM     26  C   UNL     1       3.653  -1.074   2.379  0.00  0.00    +0.002 A 
ATOM     27  C   UNL     1       2.396  -1.630   2.626  0.00  0.00    +0.004 A 
BRANCH  24  28
ATOM     28  N   UNL     1       3.920  -1.523  -1.332  0.00  0.00    -0.215 N 
ATOM     29  H   UNL     1       3.251  -1.604  -2.131  0.00  0.00    +0.174 HD
BRANCH  28  30
ATOM     30  S   UNL     1       5.604  -1.740  -1.688  0.00  0.00    +0.090 S 
ATOM     31  O   UNL     1       5.756  -2.281  -3.081  0.00  0.00    -0.148 OA
ATOM     32  O   UNL     1       6.189  -2.732  -0.723  0.00  0.00    -0.148 OA
BRANCH  30  33
ATOM     33  C   UNL     1       6.461  -0.214  -1.558  0.00  0.00    +0.197 A 
ATOM     34  N   UNL     1       7.546  -0.121  -0.745  0.00  0.00    -0.235 NA
ATOM     35  C   UNL     1       8.246   1.037  -0.609  0.00  0.00    +0.125 A 
ATOM     36  C   UNL     1       7.856   2.188  -1.312  0.00  0.00    +0.073 A 
ATOM     37  C   UNL     1       6.748   2.102  -2.174  0.00  0.00    +0.017 A 
ATOM     38  C   UNL     1       6.043   0.901  -2.292  0.00  0.00    +0.050 A 
BRANCH  36  39
ATOM     39  C   UNL     1       8.662   3.455  -1.180  0.00  0.00    +0.419 C 
ATOM     40  F   UNL     1       9.871   3.299  -1.834  0.00  0.00    -0.166 F 
ATOM     41  F   UNL     1       8.903   3.719   0.158  0.00  0.00    -0.166 F 
ATOM     42  F   UNL     1       7.994   4.538  -1.727  0.00  0.00    -0.166 F 
ENDBRANCH  36  39
ENDBRANCH  30  33
ENDBRANCH  28  30
ENDBRANCH  24  28
ENDBRANCH   1  22
BRANCH   1  43
ATOM     43  C   UNL     1       0.037  -3.382   3.187  0.00  0.00    +0.010 C 
ATOM     44  C   UNL     1      -1.214  -4.258   3.254  0.00  0.00    +0.005 C 
ENDBRANCH   1  43
TORSDOF 13
