REMARK  Name = 
REMARK  16 active torsions:
REMARK  status: ('A' for Active; 'I' for Inactive)
REMARK    1  A    between atoms: C_1  and  C_2
REMARK    2  A    between atoms: C_2  and  C_3
REMARK    3  A    between atoms: C_3  and  C_4
REMARK    4  A    between atoms: C_4  and  S_5
REMARK    5  A    between atoms: S_5  and  N_8
REMARK    6  A    between atoms: N_8  and  C_9
REMARK    7  A    between atoms: C_9  and  C_10
REMARK    8  A    between atoms: C_9  and  C_28
REMARK    9  A    between atoms: C_10  and  C_11
REMARK   10  A    between atoms: C_14  and  O_15
REMARK   11  A    between atoms: O_15  and  C_16
REMARK   12  A    between atoms: C_16  and  C_17
REMARK   13  A    between atoms: C_17  and  C_18
REMARK   14  A    between atoms: C_18  and  C_19
REMARK   15  A    between atoms: C_19  and  C_20
REMARK   16  A    between atoms: C_28  and  O_29
REMARK                            x       y       z     vdW  Elec       q    Type
REMARK                         _______ _______ _______ _____ _____    ______ ____
ROOT
ATOM      1  C   UNL     1       1.901  -2.034   0.943  0.00  0.00    -0.045 A 
ATOM      2  C   UNL     1       1.087  -1.204   1.730  0.00  0.00    +0.007 A 
ATOM      3  C   UNL     1      -0.300  -1.367   1.727  0.00  0.00    +0.046 A 
ATOM      4  C   UNL     1      -0.898  -2.355   0.936  0.00  0.00    +0.121 A 
ATOM      5  C   UNL     1      -0.084  -3.186   0.143  0.00  0.00    +0.046 A 
ATOM      6  C   UNL     1       1.304  -3.026   0.149  0.00  0.00    +0.007 A 
ENDROOT
BRANCH   1   7
ATOM      7  C   UNL     1       3.400  -1.846   0.935  0.00  0.00    +0.067 C 
BRANCH   7   8
ATOM      8  C   UNL     1       3.876  -0.808  -0.105  0.00  0.00    +0.188 C 
BRANCH   8   9
ATOM      9  N   UNL     1       3.178   0.480   0.078  0.00  0.00    -0.180 NA
ATOM     10  H   UNL     1       3.162   1.014  -0.822  0.00  0.00    +0.149 HD
BRANCH   9  11
ATOM     11  S   UNL     1       3.978   1.512   1.237  0.00  0.00    +0.030 S 
ATOM     12  O   UNL     1       4.803   0.717   2.211  0.00  0.00    -0.158 OA
ATOM     13  O   UNL     1       2.923   2.253   2.009  0.00  0.00    -0.158 OA
BRANCH  11  14
ATOM     14  C   UNL     1       5.005   2.727   0.407  0.00  0.00    +0.185 C 
BRANCH  14  15
ATOM     15  C   UNL     1       6.036   2.114  -0.556  0.00  0.00    +0.024 C 
BRANCH  15  17
ATOM     16  C   UNL     1       8.136   2.381   0.880  0.00  0.00    +0.004 C 
ATOM     17  C   UNL     1       7.222   1.413   0.129  0.00  0.00    -0.002 C 
ENDBRANCH  15  17
ENDBRANCH  14  15
ENDBRANCH  11  14
ENDBRANCH   9  11
ENDBRANCH   8   9
BRANCH   8  18
ATOM     18  C   UNL     1       3.661  -1.339  -1.501  0.00  0.00    +0.324 C 
ATOM     19  O   UNL     1       4.585  -1.970  -2.081  0.00  0.00    -0.249 OA
BRANCH  18  20
ATOM     20  O   UNL     1       2.433  -1.172  -2.137  0.00  0.00    -0.479 OA
ATOM     21  H   UNL     1       2.276  -1.543  -3.067  0.00  0.00    +0.295 HD
ENDBRANCH  18  20
ENDBRANCH   8  18
ENDBRANCH   7   8
ENDBRANCH   1   7
BRANCH   4  22
ATOM     22  O   UNL     1      -2.294  -2.477   0.967  0.00  0.00    -0.492 OA
BRANCH  22  23
ATOM     23  C   UNL     1      -3.044  -3.388   0.168  0.00  0.00    +0.229 C 
BRANCH  23  24
ATOM     24  C   UNL     1      -4.543  -3.215   0.434  0.00  0.00    +0.041 C 
BRANCH  24  25
ATOM     25  C   UNL     1      -5.141  -1.963  -0.231  0.00  0.00    +0.004 C 
BRANCH  25  26
ATOM     26  C   UNL     1      -4.672  -0.652   0.424  0.00  0.00    +0.004 C 
BRANCH  26  27
ATOM     27  C   UNL     1      -5.481   0.569  -0.066  0.00  0.00    -0.009 C 
ATOM     28  C   UNL     1      -5.274   0.830  -1.579  0.00  0.00    +0.018 C 
ATOM     29  C   UNL     1      -5.558   2.293  -1.969  0.00  0.00    +0.081 C 
ATOM     30  N   UNL     1      -6.519   2.895  -1.040  0.00  0.00    -0.316 NA
ATOM     31  C   UNL     1      -5.932   3.052   0.303  0.00  0.00    +0.081 C 
ATOM     32  C   UNL     1      -5.106   1.823   0.746  0.00  0.00    +0.018 C 
ATOM     33  H   UNL     1      -6.766   3.847  -1.399  0.00  0.00    +0.122 HD
ENDBRANCH  26  27
ENDBRANCH  25  26
ENDBRANCH  24  25
ENDBRANCH  23  24
ENDBRANCH  22  23
ENDBRANCH   4  22
TORSDOF 15
