REMARK  Name = 
REMARK  1 active torsions:
REMARK  status: ('A' for Active; 'I' for Inactive)
REMARK    1  A    between atoms: C_3  and  N_4
REMARK                            x       y       z     vdW  Elec       q    Type
REMARK                         _______ _______ _______ _____ _____    ______ ____
ROOT
ATOM      1 CL   UNL     1      -1.587   0.635  -3.256  0.00  0.00    -0.082 Cl
ATOM      2  C   UNL     1      -2.009   0.465  -1.557  0.00  0.00    +0.064 A 
ATOM      3  C   UNL     1      -1.132  -0.172  -0.653  0.00  0.00    +0.080 A 
ATOM      4  C   UNL     1      -1.519  -0.286   0.693  0.00  0.00    +0.122 A 
ATOM      5  N   UNL     1      -0.776  -0.929   1.631  0.00  0.00    -0.189 NA
ATOM      6  S   UNL     1      -1.741  -0.738   2.960  0.00  0.00    +0.117 S 
ATOM      7  N   UNL     1      -3.068   0.104   2.446  0.00  0.00    -0.191 NA
ATOM      8  C   UNL     1      -2.758   0.261   1.134  0.00  0.00    +0.102 A 
ATOM      9  C   UNL     1      -3.603   0.908   0.235  0.00  0.00    +0.032 A 
ATOM     10  C   UNL     1      -3.227   1.004  -1.110  0.00  0.00    +0.024 A 
ENDROOT
BRANCH   3  11
ATOM     11  N   UNL     1       0.108  -0.730  -1.118  0.00  0.00    -0.285 N 
ATOM     12  C   UNL     1       1.375  -0.427  -0.519  0.00  0.00    +0.180 C 
ATOM     13  N   UNL     1       1.526   0.464   0.398  0.00  0.00    -0.254 NA
ATOM     14  C   UNL     1       2.934   0.550   0.764  0.00  0.00    +0.163 C 
ATOM     15  C   UNL     1       3.649  -0.467  -0.143  0.00  0.00    +0.127 C 
ATOM     16  N   UNL     1       2.577  -1.045  -0.928  0.00  0.00    -0.315 N 
ATOM     17  H   UNL     1       0.107  -1.288  -2.001  0.00  0.00    +0.155 HD
ATOM     18  H   UNL     1       2.676  -1.777  -1.665  0.00  0.00    +0.149 HD
ENDBRANCH   3  11
TORSDOF 1
