REMARK  Name = 
REMARK  16 active torsions:
REMARK  status: ('A' for Active; 'I' for Inactive)
REMARK    1  A    between atoms: N_1  and  C_2
REMARK    2  A    between atoms: C_2  and  C_3
REMARK    3  A    between atoms: C_5  and  O_6
REMARK    4  A    between atoms: O_6  and  C_7
REMARK    5  A    between atoms: C_8  and  N_9
REMARK    6  A    between atoms: C_11  and  N_12
REMARK    7  A    between atoms: C_13  and  O_14
REMARK    8  A    between atoms: O_14  and  C_15
REMARK    9  A    between atoms: C_17  and  C_18
REMARK   10  A    between atoms: C_18  and  O_19
REMARK   11  A    between atoms: C_20  and  O_21
REMARK   12  A    between atoms: C_22  and  N_23
REMARK   13  A    between atoms: C_24  and  O_25
REMARK   14  A    between atoms: C_26  and  O_27
REMARK   15  A    between atoms: C_28  and  N_29
REMARK   16  A    between atoms: C_31  and  O_32
REMARK                            x       y       z     vdW  Elec       q    Type
REMARK                         _______ _______ _______ _____ _____    ______ ____
ROOT
ATOM      1  C   UNL     1       1.081   0.688  -0.586  0.00  0.00    +0.169 C 
ATOM      2  C   UNL     1       1.201   1.705   0.581  0.00  0.00    +0.084 C 
ATOM      3  C   UNL     1       0.735   1.092   1.924  0.00  0.00    +0.042 C 
ATOM      4  C   UNL     1      -0.252  -0.087   1.769  0.00  0.00    +0.084 C 
ATOM      5  C   UNL     1      -1.189   0.097   0.551  0.00  0.00    +0.169 C 
ATOM      6  C   UNL     1      -0.395   0.246  -0.781  0.00  0.00    +0.175 C 
ENDROOT
BRANCH   2   7
ATOM      7  N   UNL     1       0.428   2.916   0.282  0.00  0.00    -0.325 NA
ATOM      8  H   UNL     1       0.751   3.302  -0.634  0.00  0.00    +0.119 HD
ATOM      9  H   UNL     1       0.663   3.643   0.995  0.00  0.00    +0.119 HD
ENDBRANCH   2   7
BRANCH   4  10
ATOM     10  N   UNL     1      -1.013  -0.250   3.011  0.00  0.00    -0.325 NA
ATOM     11  H   UNL     1      -1.743   0.496   3.077  0.00  0.00    +0.119 HD
ATOM     12  H   UNL     1      -1.510  -1.171   2.988  0.00  0.00    +0.119 HD
ENDBRANCH   4  10
BRANCH   6  13
ATOM     13  O   UNL     1      -1.067   1.170  -1.604  0.00  0.00    -0.387 OA
ATOM     14  H   UNL     1      -0.742   1.028  -2.532  0.00  0.00    +0.210 HD
ENDBRANCH   6  13
BRANCH   1  15
ATOM     15  O   UNL     1       1.860  -0.476  -0.338  0.00  0.00    -0.342 OA
BRANCH  15  18
ATOM     16  C   UNL     1       5.216   0.053   0.805  0.00  0.00    +0.163 C 
ATOM     17  O   UNL     1       3.852  -0.364   0.798  0.00  0.00    -0.343 OA
ATOM     18  C   UNL     1       3.254  -0.253  -0.481  0.00  0.00    +0.268 C 
ATOM     19  C   UNL     1       3.855  -1.314  -1.439  0.00  0.00    +0.110 C 
ATOM     20  C   UNL     1       5.362  -1.536  -1.162  0.00  0.00    +0.057 C 
ATOM     21  C   UNL     1       5.986  -0.295  -0.506  0.00  0.00    +0.146 C 
BRANCH  19  22
ATOM     22  N   UNL     1       3.123  -2.582  -1.357  0.00  0.00    -0.323 NA
ATOM     23  H   UNL     1       3.210  -2.966  -0.387  0.00  0.00    +0.119 HD
ATOM     24  H   UNL     1       3.573  -3.270  -2.001  0.00  0.00    +0.119 HD
ENDBRANCH  19  22
BRANCH  21  25
ATOM     25  O   UNL     1       7.357  -0.487  -0.254  0.00  0.00    -0.389 OA
ATOM     26  H   UNL     1       7.456  -1.311   0.291  0.00  0.00    +0.210 HD
ENDBRANCH  21  25
BRANCH  16  27
ATOM     27  C   UNL     1       5.304   1.549   1.157  0.00  0.00    +0.112 C 
BRANCH  27  28
ATOM     28  N   UNL     1       6.678   1.928   1.477  0.00  0.00    -0.328 NA
ATOM     29  H   UNL     1       6.937   1.483   2.387  0.00  0.00    +0.118 HD
ATOM     30  H   UNL     1       6.696   2.960   1.636  0.00  0.00    +0.118 HD
ENDBRANCH  27  28
ENDBRANCH  16  27
ENDBRANCH  15  18
ENDBRANCH   1  15
BRANCH   5  31
ATOM     31  O   UNL     1      -2.030  -1.044   0.468  0.00  0.00    -0.341 OA
BRANCH  31  32
ATOM     32  C   UNL     1      -3.369  -0.705   0.162  0.00  0.00    +0.281 C 
ATOM     33  O   UNL     1      -3.461  -0.286  -1.190  0.00  0.00    -0.341 OA
ATOM     34  C   UNL     1      -4.736   0.277  -1.498  0.00  0.00    +0.177 C 
ATOM     35  C   UNL     1      -5.928  -0.419  -0.772  0.00  0.00    +0.165 C 
ATOM     36  C   UNL     1      -5.559  -1.881  -0.479  0.00  0.00    +0.116 C 
ATOM     37  C   UNL     1      -4.272  -1.947   0.390  0.00  0.00    +0.189 C 
BRANCH  36  38
ATOM     38  N   UNL     1      -6.676  -2.570   0.171  0.00  0.00    -0.323 NA
ATOM     39  H   UNL     1      -6.400  -3.562   0.350  0.00  0.00    +0.119 HD
ATOM     40  H   UNL     1      -6.876  -2.124   1.098  0.00  0.00    +0.119 HD
ENDBRANCH  36  38
BRANCH  35  41
ATOM     41  O   UNL     1      -7.080  -0.381  -1.576  0.00  0.00    -0.388 OA
ATOM     42  H   UNL     1      -7.558   0.464  -1.365  0.00  0.00    +0.210 HD
ENDBRANCH  35  41
BRANCH  37  43
ATOM     43  O   UNL     1      -3.577  -3.145   0.136  0.00  0.00    -0.385 OA
ATOM     44  H   UNL     1      -3.230  -3.100  -0.794  0.00  0.00    +0.210 HD
ENDBRANCH  37  43
BRANCH  34  45
ATOM     45  C   UNL     1      -4.712   1.795  -1.260  0.00  0.00    +0.190 C 
BRANCH  45  46
ATOM     46  O   UNL     1      -5.852   2.389  -1.815  0.00  0.00    -0.392 OA
ATOM     47  H   UNL     1      -5.816   3.349  -1.561  0.00  0.00    +0.210 HD
ENDBRANCH  45  46
ENDBRANCH  34  45
ENDBRANCH  31  32
ENDBRANCH   5  31
TORSDOF 16
