REMARK  Name = 
REMARK  6 active torsions:
REMARK  status: ('A' for Active; 'I' for Inactive)
REMARK    1  A    between atoms: C_1  and  C_2
REMARK    2  A    between atoms: C_2  and  N_3
REMARK    3  A    between atoms: C_2  and  C_4
REMARK    4  A    between atoms: N_6  and  C_7
REMARK    5  A    between atoms: C_8  and  C_9
REMARK    6  A    between atoms: C_13  and  C_14
REMARK                            x       y       z     vdW  Elec       q    Type
REMARK                         _______ _______ _______ _____ _____    ______ ____
ROOT
ATOM      1  C   UNL     1       1.303  -0.728  -0.405  0.00  0.00    +0.234 C 
ATOM      2  O   UNL     1       0.896  -1.337  -1.431  0.00  0.00    -0.274 OA
ATOM      3  N   UNL     1       0.388   0.058   0.374  0.00  0.00    -0.284 N 
ATOM      4  H   UNL     1       0.763   0.703   1.105  0.00  0.00    +0.155 HD
ENDROOT
BRANCH   3   5
ATOM      5  C   UNL     1      -1.006   0.150   0.045  0.00  0.00    +0.039 A 
ATOM      6  C   UNL     1      -1.860  -0.966   0.212  0.00  0.00    -0.029 A 
ATOM      7  C   UNL     1      -1.344  -2.278   0.739  0.00  0.00    +0.045 C 
ATOM      8  C   UNL     1      -3.214  -0.857  -0.141  0.00  0.00    +0.005 A 
ATOM      9  C   UNL     1      -3.729   0.351  -0.610  0.00  0.00    +0.001 A 
ATOM     10  C   UNL     1      -2.898   1.464  -0.741  0.00  0.00    +0.005 A 
ATOM     11  C   UNL     1      -1.534   1.374  -0.423  0.00  0.00    -0.029 A 
ATOM     12  C   UNL     1      -0.650   2.582  -0.578  0.00  0.00    +0.045 C 
ENDBRANCH   3   5
BRANCH   1  14
ATOM     13  C   UNL     1       3.448   0.549  -0.225  0.00  0.00    +0.033 C 
ATOM     14  C   UNL     1       2.759  -0.808  -0.032  0.00  0.00    +0.135 C 
BRANCH  14  15
ATOM     15  N   UNL     1       2.901  -1.289   1.344  0.00  0.00    -0.320 NA
ATOM     16  H   UNL     1       3.914  -1.478   1.526  0.00  0.00    +0.119 HD
ATOM     17  H   UNL     1       2.606  -0.542   2.013  0.00  0.00    +0.119 HD
ENDBRANCH  14  15
ENDBRANCH   1  14
TORSDOF 3
