REMARK  Name = 
REMARK  12 active torsions:
REMARK  status: ('A' for Active; 'I' for Inactive)
REMARK    1  A    between atoms: C_1  and  C_2
REMARK    2  A    between atoms: C_2  and  C_3
REMARK    3  A    between atoms: C_6  and  O_7
REMARK    4  A    between atoms: O_7  and  C_8
REMARK    5  A    between atoms: C_9  and  O_10
REMARK    6  A    between atoms: O_10  and  C_11
REMARK    7  A    between atoms: C_14  and  C_19
REMARK    8  A    between atoms: C_17  and  C_18
REMARK    9  A    between atoms: C_21  and  O_22
REMARK   10  A    between atoms: O_22  and  C_23
REMARK   11  A    between atoms: C_24  and  O_25
REMARK   12  A    between atoms: O_25  and  C_26
REMARK                            x       y       z     vdW  Elec       q    Type
REMARK                         _______ _______ _______ _____ _____    ______ ____
ROOT
ATOM      1  C   UNL     1      -2.130  -1.761  -0.602  0.00  0.00    +0.065 C 
ATOM      2  C   UNL     1      -1.925  -0.326  -0.149  0.00  0.00    -0.026 A 
ATOM      3  C   UNL     1      -2.969   0.621  -0.129  0.00  0.00    +0.054 A 
ATOM      4  C   UNL     1      -2.753   1.929   0.341  0.00  0.00    +0.162 A 
ATOM      5  C   UNL     1      -1.495   2.289   0.835  0.00  0.00    +0.162 A 
ATOM      6  C   UNL     1      -0.465   1.335   0.871  0.00  0.00    +0.059 A 
ATOM      7  C   UNL     1      -0.669   0.029   0.394  0.00  0.00    +0.010 A 
ATOM      8  C   UNL     1       0.447  -0.960   0.498  0.00  0.00    +0.101 C 
ATOM      9  N   UNL     1       0.259  -2.173   0.950  0.00  0.00    -0.149 NA
ATOM     10  N   UNL     1      -0.976  -2.760   1.304  0.00  0.00    -0.158 NA
ATOM     11  C   UNL     1      -2.092  -2.613   0.647  0.00  0.00    +0.045 C 
ATOM     12  C   UNL     1      -3.330  -3.260   1.200  0.00  0.00    +0.063 C 
ENDROOT
BRANCH   8  13
ATOM     13  C   UNL     1       1.832  -0.552   0.144  0.00  0.00    +0.006 A 
ATOM     14  C   UNL     1       2.934  -1.116   0.810  0.00  0.00    +0.059 A 
ATOM     15  C   UNL     1       4.250  -0.739   0.475  0.00  0.00    +0.162 A 
ATOM     16  C   UNL     1       4.464   0.206  -0.540  0.00  0.00    +0.162 A 
ATOM     17  C   UNL     1       3.362   0.763  -1.214  0.00  0.00    +0.050 A 
ATOM     18  C   UNL     1       2.062   0.385  -0.877  0.00  0.00    +0.014 A 
BRANCH  15  19
ATOM     19  O   UNL     1       5.369  -1.279   1.127  0.00  0.00    -0.491 OA
ATOM     20  C   UNL     1       5.308  -2.244   2.172  0.00  0.00    +0.277 C 
ENDBRANCH  15  19
BRANCH  16  21
ATOM     21  O   UNL     1       5.785   0.564  -0.851  0.00  0.00    -0.491 OA
ATOM     22  C   UNL     1       6.151   1.507  -1.853  0.00  0.00    +0.277 C 
ENDBRANCH  16  21
ENDBRANCH   8  13
BRANCH   1  24
ATOM     23  C   UNL     1      -3.260  -1.326  -2.859  0.00  0.00    +0.005 C 
ATOM     24  C   UNL     1      -3.361  -2.033  -1.505  0.00  0.00    +0.011 C 
ENDBRANCH   1  24
BRANCH   4  25
ATOM     25  O   UNL     1      -3.768   2.900   0.338  0.00  0.00    -0.491 OA
ATOM     26  C   UNL     1      -5.093   2.687  -0.138  0.00  0.00    +0.277 C 
ENDBRANCH   4  25
BRANCH   5  27
ATOM     27  O   UNL     1      -1.309   3.604   1.291  0.00  0.00    -0.491 OA
ATOM     28  C   UNL     1      -0.084   4.115   1.808  0.00  0.00    +0.277 C 
ENDBRANCH   5  27
TORSDOF 6
