REMARK  Name = 
REMARK  4 active torsions:
REMARK  status: ('A' for Active; 'I' for Inactive)
REMARK    1  A    between atoms: C_1  and  C_2
REMARK    2  A    between atoms: C_5  and  S_8
REMARK    3  A    between atoms: S_8  and  N_11
REMARK    4  A    between atoms: N_14  and  N_15
REMARK                            x       y       z     vdW  Elec       q    Type
REMARK                         _______ _______ _______ _____ _____    ______ ____
ROOT
ATOM      1  N   UNL     1       0.803  -2.371   1.260  0.00  0.00    -0.168 N 
ATOM      2  C   UNL     1      -0.171  -1.530   0.634  0.00  0.00    +0.333 C 
ATOM      3  O   UNL     1      -0.064  -1.231  -0.586  0.00  0.00    -0.250 OA
ATOM      4  N   UNL     1      -1.270  -1.023   1.396  0.00  0.00    -0.231 N 
ATOM      5  H   UNL     1       0.696  -2.626   2.266  0.00  0.00    +0.178 HD
ATOM      6  H   UNL     1      -1.348  -1.266   2.411  0.00  0.00    +0.171 HD
ENDROOT
BRANCH   4   7
ATOM      7  N   UNL     1      -2.217  -0.170   0.794  0.00  0.00    -0.226 NA
ATOM      8  C   UNL     1      -3.551  -0.783   0.953  0.00  0.00    +0.105 C 
ATOM      9  C   UNL     1      -4.549  -0.249  -0.081  0.00  0.00    +0.017 C 
ATOM     10  C   UNL     1      -4.724   1.277  -0.041  0.00  0.00    +0.001 C 
ATOM     11  C   UNL     1      -3.492   2.013  -0.593  0.00  0.00    +0.001 C 
ATOM     12  C   UNL     1      -2.409   2.295   0.462  0.00  0.00    +0.017 C 
ATOM     13  C   UNL     1      -2.137   1.152   1.452  0.00  0.00    +0.105 C 
ENDBRANCH   4   7
BRANCH   1  14
ATOM     14  S   UNL     1       2.185  -2.959   0.397  0.00  0.00    +0.076 S 
ATOM     15  O   UNL     1       3.058  -3.751   1.329  0.00  0.00    -0.150 OA
ATOM     16  O   UNL     1       1.726  -3.857  -0.717  0.00  0.00    -0.150 OA
BRANCH  14  21
ATOM     17  C   UNL     1       5.331   1.774  -1.736  0.00  0.00    +0.044 C 
ATOM     18  C   UNL     1       4.533   0.615  -1.218  0.00  0.00    -0.050 A 
ATOM     19  C   UNL     1       4.077  -0.381  -2.096  0.00  0.00    +0.005 A 
ATOM     20  C   UNL     1       3.362  -1.479  -1.607  0.00  0.00    +0.029 A 
ATOM     21  C   UNL     1       3.106  -1.597  -0.233  0.00  0.00    +0.109 A 
ATOM     22  C   UNL     1       3.575  -0.613   0.646  0.00  0.00    +0.029 A 
ATOM     23  C   UNL     1       4.291   0.485   0.159  0.00  0.00    +0.005 A 
ENDBRANCH  14  21
ENDBRANCH   1  14
TORSDOF 3
