REMARK  Name = 
REMARK  2 active torsions:
REMARK  status: ('A' for Active; 'I' for Inactive)
REMARK    1  A    between atoms: C_1  and  C_2
REMARK    2  A    between atoms: C_1  and  C_7
REMARK                            x       y       z     vdW  Elec       q    Type
REMARK                         _______ _______ _______ _____ _____    ______ ____
ROOT
ATOM      1  C   UNL     1       0.044  -1.474   0.596  0.00  0.00    +0.106 C 
ENDROOT
BRANCH   1   2
ATOM      2  C   UNL     1      -1.248  -0.734   0.467  0.00  0.00    +0.094 C 
ATOM      3  N   UNL     1      -2.030  -0.870  -0.548  0.00  0.00    -0.272 NA
ATOM      4  C   UNL     1      -3.168   0.032  -0.412  0.00  0.00    +0.162 C 
ATOM      5  C   UNL     1      -2.916   0.804   0.893  0.00  0.00    +0.126 C 
ATOM      6  N   UNL     1      -1.674   0.247   1.390  0.00  0.00    -0.331 N 
ATOM      7  H   UNL     1      -1.171   0.539   2.257  0.00  0.00    +0.147 HD
ENDBRANCH   1   2
BRANCH   1   8
ATOM      8  C   UNL     1       1.164  -0.660   0.008  0.00  0.00    -0.040 A 
ATOM      9  C   UNL     1       1.866   0.260   0.804  0.00  0.00    +0.004 A 
ATOM     10  C   UNL     1       2.883   1.041   0.247  0.00  0.00    +0.000 A 
ATOM     11  C   UNL     1       3.199   0.916  -1.109  0.00  0.00    +0.000 A 
ATOM     12  C   UNL     1       2.496   0.013  -1.910  0.00  0.00    +0.000 A 
ATOM     13  C   UNL     1       1.478  -0.770  -1.357  0.00  0.00    +0.004 A 
ENDBRANCH   1   8
TORSDOF 2
