REMARK  Name = 
REMARK  7 active torsions:
REMARK  status: ('A' for Active; 'I' for Inactive)
REMARK    1  A    between atoms: C_1  and  C_2
REMARK    2  A    between atoms: C_2  and  C_3
REMARK    3  A    between atoms: C_3  and  C_4
REMARK    4  A    between atoms: C_4  and  N_5
REMARK    5  A    between atoms: N_8  and  S_9
REMARK    6  A    between atoms: S_9  and  C_12
REMARK    7  A    between atoms: C_15  and  C_16
REMARK                            x       y       z     vdW  Elec       q    Type
REMARK                         _______ _______ _______ _____ _____    ______ ____
ROOT
ATOM      1  N   UNL     1      -2.346   0.437  -0.760  0.00  0.00    -0.298 N 
ATOM      2  C   UNL     1      -1.100   0.138  -1.399  0.00  0.00    +0.319 C 
ATOM      3  O   UNL     1      -0.717  -1.059  -1.512  0.00  0.00    -0.251 OA
ATOM      4  N   UNL     1      -0.287   1.202  -1.904  0.00  0.00    -0.169 N 
ATOM      5  H   UNL     1      -2.646   1.436  -0.704  0.00  0.00    +0.150 HD
ATOM      6  H   UNL     1      -0.617   2.189  -1.821  0.00  0.00    +0.178 HD
ENDROOT
BRANCH   4   7
ATOM      7  S   UNL     1       1.273   0.906  -2.598  0.00  0.00    +0.076 S 
ATOM      8  O   UNL     1       1.883   2.210  -3.029  0.00  0.00    -0.150 OA
ATOM      9  O   UNL     1       1.110   0.018  -3.800  0.00  0.00    -0.150 OA
BRANCH   7  10
ATOM     10  C   UNL     1       2.323   0.145  -1.407  0.00  0.00    +0.109 A 
ATOM     11  C   UNL     1       2.221   0.499  -0.056  0.00  0.00    +0.029 A 
ATOM     12  C   UNL     1       3.050  -0.104   0.894  0.00  0.00    +0.005 A 
ATOM     13  C   UNL     1       3.985  -1.075   0.503  0.00  0.00    -0.050 A 
ATOM     14  C   UNL     1       4.903  -1.694   1.515  0.00  0.00    +0.044 C 
ATOM     15  C   UNL     1       4.103  -1.409  -0.855  0.00  0.00    +0.005 A 
ATOM     16  C   UNL     1       3.272  -0.806  -1.804  0.00  0.00    +0.029 A 
ENDBRANCH   7  10
ENDBRANCH   4   7
BRANCH   1  17
ATOM     17  C   UNL     1      -3.192  -0.620  -0.204  0.00  0.00    +0.106 C 
BRANCH  17  18
ATOM     18  C   UNL     1      -4.404  -0.045   0.550  0.00  0.00    +0.018 C 
BRANCH  18  20
ATOM     19  C   UNL     1      -3.157   1.546   2.122  0.00  0.00    +0.004 C 
ATOM     20  C   UNL     1      -4.093   0.344   2.006  0.00  0.00    -0.002 C 
ENDBRANCH  18  20
ENDBRANCH  17  18
ENDBRANCH   1  17
TORSDOF 5
