REMARK  Name = 
REMARK  6 active torsions:
REMARK  status: ('A' for Active; 'I' for Inactive)
REMARK    1  A    between atoms: C_1  and  C_2
REMARK    2  A    between atoms: C_5  and  C_8
REMARK    3  A    between atoms: C_8  and  C_10
REMARK    4  A    between atoms: C_12  and  N_18
REMARK    5  A    between atoms: C_13  and  O_14
REMARK    6  A    between atoms: C_15  and  O_16
REMARK                            x       y       z     vdW  Elec       q    Type
REMARK                         _______ _______ _______ _____ _____    ______ ____
ROOT
ATOM      1  C   UNL     1      -1.101  -1.142   0.284  0.00  0.00    +0.028 A 
ATOM      2  C   UNL     1      -1.513   0.200   0.282  0.00  0.00    +0.048 A 
ATOM      3  C   UNL     1      -2.832   0.551  -0.050  0.00  0.00    +0.172 A 
ATOM      4  C   UNL     1      -3.769  -0.469  -0.334  0.00  0.00    +0.189 A 
ATOM      5  C   UNL     1      -3.357  -1.814  -0.330  0.00  0.00    +0.161 A 
ATOM      6  C   UNL     1      -2.035  -2.142  -0.020  0.00  0.00    +0.061 A 
ENDROOT
BRANCH   3   7
ATOM      7  N   UNL     1      -3.196   1.938  -0.116  0.00  0.00    +0.060 N 
ATOM      8  O   UNL     1      -3.914   2.412  -1.190  0.00  0.00    -0.126 OA
ATOM      9  O   UNL     1      -2.685   2.758   0.675  0.00  0.00    -0.126 OA
ENDBRANCH   3   7
BRANCH   1  10
ATOM     10  C   UNL     1       0.292  -1.513   0.636  0.00  0.00    +0.193 C 
ATOM     11  O   UNL     1       0.496  -2.596   1.249  0.00  0.00    -0.287 OA
BRANCH  10  16
ATOM     12  C   UNL     1       4.885   1.761  -0.725  0.00  0.00    +0.044 C 
ATOM     13  C   UNL     1       3.683   0.943  -0.358  0.00  0.00    -0.050 A 
ATOM     14  C   UNL     1       3.692   0.151   0.799  0.00  0.00    +0.004 A 
ATOM     15  C   UNL     1       2.587  -0.641   1.122  0.00  0.00    +0.012 A 
ATOM     16  C   UNL     1       1.453  -0.655   0.292  0.00  0.00    +0.022 A 
ATOM     17  C   UNL     1       1.461   0.113  -0.886  0.00  0.00    +0.012 A 
ATOM     18  C   UNL     1       2.568   0.904  -1.208  0.00  0.00    +0.004 A 
ENDBRANCH  10  16
ENDBRANCH   1  10
BRANCH   4  19
ATOM     19  O   UNL     1      -5.113  -0.180  -0.584  0.00  0.00    -0.502 OA
ATOM     20  H   UNL     1      -5.513   0.740  -0.461  0.00  0.00    +0.292 HD
ENDBRANCH   4  19
BRANCH   5  21
ATOM     21  O   UNL     1      -4.253  -2.842  -0.623  0.00  0.00    -0.503 OA
ATOM     22  H   UNL     1      -5.223  -2.665  -0.855  0.00  0.00    +0.292 HD
ENDBRANCH   5  21
TORSDOF 5
