REMARK  Name = 
REMARK  7 active torsions:
REMARK  status: ('A' for Active; 'I' for Inactive)
REMARK    1  A    between atoms: C_1  and  N_2
REMARK    2  A    between atoms: C_3  and  C_4
REMARK    3  A    between atoms: C_4  and  C_5
REMARK    4  A    between atoms: C_5  and  O_6
REMARK    5  A    between atoms: C_10  and  C_11
REMARK    6  A    between atoms: C_11  and  C_13
REMARK    7  A    between atoms: C_16  and  C_17
REMARK                            x       y       z     vdW  Elec       q    Type
REMARK                         _______ _______ _______ _____ _____    ______ ____
ROOT
ATOM      1  C   UNL     1      -2.475  -0.607  -1.909  0.00  0.00    +0.149 C 
ATOM      2  N   UNL     1      -2.067  -0.561  -0.502  0.00  0.00    -0.344 N 
ATOM      3  C   UNL     1      -2.877  -0.409   0.573  0.00  0.00    +0.030 A 
ATOM      4  C   UNL     1      -2.132  -0.432   1.737  0.00  0.00    +0.024 A 
ATOM      5  C   UNL     1      -0.821  -0.635   1.362  0.00  0.00    +0.031 A 
ATOM      6  C   UNL     1      -0.810  -0.716  -0.020  0.00  0.00    +0.090 A 
ENDROOT
BRANCH   6   7
ATOM      7  C   UNL     1       0.390  -1.012  -0.837  0.00  0.00    +0.209 C 
ATOM      8  O   UNL     1       0.261  -1.695  -1.889  0.00  0.00    -0.285 OA
BRANCH   7   9
ATOM      9  C   UNL     1       1.743  -0.557  -0.434  0.00  0.00    +0.024 A 
ATOM     10  C   UNL     1       2.876  -1.301  -0.811  0.00  0.00    +0.012 A 
ATOM     11  C   UNL     1       4.157  -0.875  -0.448  0.00  0.00    +0.004 A 
ATOM     12  C   UNL     1       4.328   0.299   0.299  0.00  0.00    -0.050 A 
ATOM     13  C   UNL     1       5.705   0.775   0.653  0.00  0.00    +0.044 C 
ATOM     14  C   UNL     1       3.205   1.062   0.648  0.00  0.00    +0.004 A 
ATOM     15  C   UNL     1       1.923   0.637   0.286  0.00  0.00    +0.012 A 
ENDBRANCH   7   9
ENDBRANCH   6   7
BRANCH   3  16
ATOM     16  C   UNL     1      -4.363  -0.195   0.525  0.00  0.00    +0.173 C 
BRANCH  16  17
ATOM     17  C   UNL     1      -4.672   1.258   0.362  0.00  0.00    +0.311 C 
ATOM     18  O   UNL     1      -4.568   2.039   1.346  0.00  0.00    -0.251 OA
BRANCH  17  19
ATOM     19  O   UNL     1      -5.050   1.755  -0.881  0.00  0.00    -0.480 OA
ATOM     20  H   UNL     1      -5.251   2.740  -1.008  0.00  0.00    +0.295 HD
ENDBRANCH  17  19
ENDBRANCH  16  17
ENDBRANCH   3  16
TORSDOF 5
