REMARK  Name = 
REMARK  6 active torsions:
REMARK  status: ('A' for Active; 'I' for Inactive)
REMARK    1  A    between atoms: C_1  and  N_2
REMARK    2  A    between atoms: N_2  and  C_3
REMARK    3  A    between atoms: N_2  and  C_16
REMARK    4  A    between atoms: C_3  and  O_5
REMARK    5  A    between atoms: O_5  and  C_6
REMARK    6  A    between atoms: C_20  and  C_21
REMARK                            x       y       z     vdW  Elec       q    Type
REMARK                         _______ _______ _______ _____ _____    ______ ____
ROOT
ATOM      1  C   UNL     1      -0.103  -1.211   1.309  0.00  0.00    +0.240 C 
ATOM      2  S   UNL     1       1.039  -1.803   2.341  0.00  0.00    +0.007 S 
ENDROOT
BRANCH   1   4
ATOM      3  C   UNL     1      -1.402  -3.389   1.392  0.00  0.00    +0.139 C 
ATOM      4  N   UNL     1      -1.173  -2.053   0.828  0.00  0.00    -0.268 N 
BRANCH   4   5
ATOM      5  C   UNL     1      -2.090  -1.538  -0.156  0.00  0.00    +0.037 A 
ATOM      6  C   UNL     1      -1.607  -0.990  -1.356  0.00  0.00    +0.023 A 
ATOM      7  C   UNL     1      -2.495  -0.478  -2.305  0.00  0.00    +0.002 A 
ATOM      8  C   UNL     1      -3.872  -0.513  -2.069  0.00  0.00    +0.003 A 
ATOM      9  C   UNL     1      -4.371  -1.076  -0.885  0.00  0.00    -0.049 A 
ATOM     10  C   UNL     1      -5.846  -1.076  -0.613  0.00  0.00    +0.044 C 
ATOM     11  C   UNL     1      -3.476  -1.574   0.074  0.00  0.00    +0.027 A 
ENDBRANCH   4   5
ENDBRANCH   1   4
BRANCH   1  12
ATOM     12  O   UNL     1      -0.100   0.149   0.963  0.00  0.00    -0.435 OA
BRANCH  12  13
ATOM     13  C   UNL     1       1.043   0.944   0.792  0.00  0.00    +0.131 A 
ATOM     14  C   UNL     1       2.249   0.413   0.302  0.00  0.00    +0.054 A 
ATOM     15  C   UNL     1       3.369   1.241   0.129  0.00  0.00    -0.014 A 
ATOM     16  C   UNL     1       4.579   0.717  -0.352  0.00  0.00    +0.008 A 
ATOM     17  C   UNL     1       5.687   1.552  -0.521  0.00  0.00    +0.001 A 
ATOM     18  C   UNL     1       5.597   2.912  -0.214  0.00  0.00    +0.001 A 
ATOM     19  C   UNL     1       4.396   3.447   0.262  0.00  0.00    +0.008 A 
ATOM     20  C   UNL     1       3.276   2.620   0.437  0.00  0.00    -0.018 A 
ATOM     21  C   UNL     1       2.064   3.145   0.905  0.00  0.00    +0.012 A 
ATOM     22  C   UNL     1       0.955   2.312   1.073  0.00  0.00    +0.047 A 
ENDBRANCH  12  13
ENDBRANCH   1  12
TORSDOF 4
