REMARK  Name = 
REMARK  6 active torsions:
REMARK  status: ('A' for Active; 'I' for Inactive)
REMARK    1  A    between atoms: C_1  and  C_2
REMARK    2  A    between atoms: C_7  and  C_8
REMARK    3  A    between atoms: N_10  and  C_11
REMARK    4  A    between atoms: C_13  and  C_14
REMARK    5  A    between atoms: C_15  and  C_18
REMARK    6  A    between atoms: C_24  and  O_25
REMARK                            x       y       z     vdW  Elec       q    Type
REMARK                         _______ _______ _______ _____ _____    ______ ____
ROOT
ATOM      1  C   UNL     1      -2.093   0.393   0.041  0.00  0.00    +0.034 A 
ATOM      2  C   UNL     1      -1.343   1.504   0.449  0.00  0.00    +0.027 A 
ATOM      3  C   UNL     1       0.006   1.640   0.079  0.00  0.00    -0.037 A 
ATOM      4  C   UNL     1       0.768   2.871   0.496  0.00  0.00    +0.044 C 
ATOM      5  C   UNL     1       0.622   0.614  -0.675  0.00  0.00    +0.040 A 
ATOM      6  C   UNL     1      -0.130  -0.499  -1.075  0.00  0.00    +0.015 A 
ATOM      7  C   UNL     1      -1.473  -0.615  -0.714  0.00  0.00    +0.024 A 
ENDROOT
BRANCH   5   8
ATOM      8  C   UNL     1       2.046   0.679  -1.051  0.00  0.00    +0.251 C 
ATOM      9  O   UNL     1       2.345   0.768  -2.273  0.00  0.00    -0.270 OA
ATOM     10  N   UNL     1       3.091   0.624  -0.058  0.00  0.00    -0.267 N 
ATOM     11  C   UNL     1       2.881  -0.003   1.252  0.00  0.00    +0.114 C 
ATOM     12  C   UNL     1       3.148  -1.506   1.181  0.00  0.00    +0.022 C 
ATOM     13  C   UNL     1       4.632  -1.834   0.951  0.00  0.00    +0.038 C 
ATOM     14  C   UNL     1       5.171  -1.429  -0.438  0.00  0.00    +0.146 C 
ATOM     15  C   UNL     1       5.455   0.058  -0.539  0.00  0.00    +0.004 A 
ATOM     16  C   UNL     1       4.423   1.016  -0.415  0.00  0.00    +0.042 A 
ATOM     17  C   UNL     1       4.702   2.376  -0.615  0.00  0.00    +0.025 A 
ATOM     18  C   UNL     1       5.998   2.793  -0.918  0.00  0.00    +0.022 A 
ATOM     19  C   UNL     1       7.027   1.856  -1.025  0.00  0.00    +0.041 A 
ATOM     20 CL   UNL     1       8.656   2.383  -1.404  0.00  0.00    -0.084 Cl
ATOM     21  C   UNL     1       6.757   0.496  -0.842  0.00  0.00    +0.028 A 
BRANCH  14  22
ATOM     22  O   UNL     1       4.284  -1.806  -1.460  0.00  0.00    -0.387 OA
ATOM     23  H   UNL     1       4.301  -2.798  -1.506  0.00  0.00    +0.210 HD
ENDBRANCH  14  22
ENDBRANCH   5   8
BRANCH   1  26
ATOM     24  C   UNL     1      -4.510  -0.266  -0.371  0.00  0.00    +0.249 C 
ATOM     25  O   UNL     1      -4.276  -0.557  -1.576  0.00  0.00    -0.270 OA
ATOM     26  N   UNL     1      -3.466   0.280   0.456  0.00  0.00    -0.281 N 
ATOM     27  H   UNL     1      -3.720   0.679   1.387  0.00  0.00    +0.155 HD
BRANCH  24  34
ATOM     28  C   UNL     1      -6.096  -2.746  -0.933  0.00  0.00    +0.044 C 
ATOM     29  C   UNL     1      -6.646  -1.611  -0.108  0.00  0.00    -0.038 A 
ATOM     30  C   UNL     1      -7.956  -1.708   0.391  0.00  0.00    +0.004 A 
ATOM     31  C   UNL     1      -8.498  -0.684   1.170  0.00  0.00    +0.000 A 
ATOM     32  C   UNL     1      -7.742   0.452   1.455  0.00  0.00    +0.001 A 
ATOM     33  C   UNL     1      -6.444   0.573   0.957  0.00  0.00    +0.013 A 
ATOM     34  C   UNL     1      -5.879  -0.448   0.168  0.00  0.00    +0.040 A 
ENDBRANCH  24  34
ENDBRANCH   1  26
TORSDOF 4
