REMARK  Name = 
REMARK  8 active torsions:
REMARK  status: ('A' for Active; 'I' for Inactive)
REMARK    1  A    between atoms: C_4  and  C_5
REMARK    2  A    between atoms: C_5  and  O_6
REMARK    3  A    between atoms: O_6  and  S_7
REMARK    4  A    between atoms: S_7  and  N_8
REMARK    5  A    between atoms: C_12  and  C_13
REMARK    6  A    between atoms: C_12  and  C_14
REMARK    7  A    between atoms: C_19  and  C_20
REMARK    8  A    between atoms: C_19  and  C_21
REMARK                            x       y       z     vdW  Elec       q    Type
REMARK                         _______ _______ _______ _____ _____    ______ ____
ROOT
ATOM      1  C   UNL     1       1.758  -0.533   1.224  0.00  0.00    +0.179 C 
ATOM      2  C   UNL     1       0.466  -0.895   1.958  0.00  0.00    +0.197 C 
ATOM      3  O   UNL     1      -0.353   0.246   2.126  0.00  0.00    -0.342 OA
ATOM      4  C   UNL     1      -0.905   0.712   0.896  0.00  0.00    +0.228 C 
ATOM      5  O   UNL     1      -1.201   2.070   1.055  0.00  0.00    -0.313 OA
ATOM      6  C   UNL     1      -0.750   2.740  -0.105  0.00  0.00    +0.169 C 
ATOM      7  C   UNL     1       0.194   3.873   0.317  0.00  0.00    +0.074 C 
ATOM      8  C   UNL     1      -1.952   3.340  -0.846  0.00  0.00    +0.074 C 
ATOM      9  O   UNL     1      -0.073   1.861  -0.976  0.00  0.00    -0.338 OA
ATOM     10  C   UNL     1       0.070   0.655  -0.290  0.00  0.00    +0.214 C 
ATOM     11  C   UNL     1       1.547   0.492   0.137  0.00  0.00    +0.187 C 
ATOM     12  O   UNL     1       2.306   0.072  -0.955  0.00  0.00    -0.341 OA
ATOM     13  C   UNL     1       2.759  -1.232  -0.654  0.00  0.00    +0.166 C 
ATOM     14  C   UNL     1       2.235  -2.195  -1.722  0.00  0.00    +0.074 C 
ATOM     15  C   UNL     1       4.291  -1.236  -0.651  0.00  0.00    +0.074 C 
ATOM     16  O   UNL     1       2.296  -1.661   0.608  0.00  0.00    -0.341 OA
ENDROOT
BRANCH   4  17
ATOM     17  C   UNL     1      -2.248  -0.011   0.608  0.00  0.00    +0.262 C 
BRANCH  17  18
ATOM     18  O   UNL     1      -2.043  -1.352   0.232  0.00  0.00    -0.220 OA
BRANCH  18  19
ATOM     19  S   UNL     1      -3.549  -2.082  -0.032  0.00  0.00    +0.149 S 
ATOM     20  O   UNL     1      -4.288  -1.371  -1.132  0.00  0.00    -0.130 OA
ATOM     21  O   UNL     1      -4.369  -2.056   1.228  0.00  0.00    -0.130 OA
BRANCH  19  22
ATOM     22  N   UNL     1      -3.291  -3.725  -0.504  0.00  0.00    -0.183 NA
ATOM     23  H   UNL     1      -4.231  -4.176  -0.568  0.00  0.00    +0.146 HD
ATOM     24  H   UNL     1      -2.785  -4.191   0.282  0.00  0.00    +0.146 HD
ENDBRANCH  19  22
ENDBRANCH  18  19
ENDBRANCH  17  18
ENDBRANCH   4  17
TORSDOF 4
