REMARK  Name = 
REMARK  8 active torsions:
REMARK  status: ('A' for Active; 'I' for Inactive)
REMARK    1  A    between atoms: C_1  and  C_2
REMARK    2  A    between atoms: C_2  and  C_3
REMARK    3  A    between atoms: C_3  and  O_4
REMARK    4  A    between atoms: C_21  and  O_22
REMARK    5  A    between atoms: C_23  and  C_24
REMARK    6  A    between atoms: C_24  and  N_25
REMARK    7  A    between atoms: N_25  and  C_26
REMARK    8  A    between atoms: N_25  and  C_27
REMARK                            x       y       z     vdW  Elec       q    Type
REMARK                         _______ _______ _______ _____ _____    ______ ____
ROOT
ATOM      1  C   UNL     1       5.302  -0.424  -0.459  0.00  0.00    +0.188 C 
ATOM      2  C   UNL     1       6.024  -1.048  -1.646  0.00  0.00    +0.344 C 
ATOM      3  O   UNL     1       6.935  -1.905  -1.490  0.00  0.00    -0.247 OA
ATOM      4  O   UNL     1       5.728  -0.615  -2.941  0.00  0.00    -0.457 OA
ATOM      5  C   UNL     1       4.836   0.470  -3.177  0.00  0.00    +0.273 C 
ATOM      6  C   UNL     1       3.654   0.370  -2.249  0.00  0.00    +0.061 A 
ATOM      7  C   UNL     1       3.859  -0.111  -0.923  0.00  0.00    +0.008 A 
ATOM      8  C   UNL     1       2.739  -0.217  -0.065  0.00  0.00    +0.035 A 
ATOM      9  C   UNL     1       1.492   0.169  -0.544  0.00  0.00    +0.071 A 
ATOM     10  N   UNL     1       1.326   0.645  -1.796  0.00  0.00    -0.302 N 
ATOM     11  C   UNL     1      -0.083   0.983  -2.039  0.00  0.00    +0.162 C 
ATOM     12  C   UNL     1      -0.724   0.630  -0.728  0.00  0.00    +0.000 A 
ATOM     13  C   UNL     1      -2.056   0.711  -0.340  0.00  0.00    +0.018 A 
ATOM     14  C   UNL     1      -2.412   0.297   0.973  0.00  0.00    +0.009 A 
ATOM     15  C   UNL     1      -1.372  -0.211   1.819  0.00  0.00    +0.072 A 
ATOM     16  C   UNL     1      -1.670  -0.665   3.101  0.00  0.00    +0.032 A 
ATOM     17  C   UNL     1      -2.979  -0.649   3.565  0.00  0.00    +0.048 A 
ATOM     18  C   UNL     1      -4.018  -0.161   2.770  0.00  0.00    +0.122 A 
ATOM     19  C   UNL     1      -3.750   0.353   1.472  0.00  0.00    +0.017 A 
ATOM     20  N   UNL     1      -0.079  -0.269   1.383  0.00  0.00    -0.245 NA
ATOM     21  C   UNL     1       0.222   0.153   0.135  0.00  0.00    +0.093 A 
ATOM     22  C   UNL     1       2.363   0.763  -2.665  0.00  0.00    +0.259 A 
ATOM     23  O   UNL     1       2.167   1.218  -3.825  0.00  0.00    -0.267 OA
ENDROOT
BRANCH   1  25
ATOM     24  C   UNL     1       5.313  -0.669   2.141  0.00  0.00    +0.007 C 
ATOM     25  C   UNL     1       5.368  -1.382   0.782  0.00  0.00    +0.048 C 
ENDBRANCH   1  25
BRANCH   1  26
ATOM     26  O   UNL     1       5.981   0.778  -0.175  0.00  0.00    -0.373 OA
ATOM     27  H   UNL     1       5.380   1.361   0.360  0.00  0.00    +0.211 HD
ENDBRANCH   1  26
BRANCH  18  28
ATOM     28  O   UNL     1      -5.308  -0.208   3.307  0.00  0.00    -0.506 OA
ATOM     29  H   UNL     1      -6.142   0.057   2.800  0.00  0.00    +0.292 HD
ENDBRANCH  18  28
BRANCH  19  30
ATOM     30  C   UNL     1      -4.896   0.945   0.665  0.00  0.00    +0.123 C 
BRANCH  30  31
ATOM     31  N   UNL     1      -5.774  -0.121   0.136  0.00  0.00    -0.304 NA
ATOM     32  C   UNL     1      -7.061   0.450  -0.290  0.00  0.00    +0.104 C 
ATOM     33  C   UNL     1      -5.141  -0.810  -1.002  0.00  0.00    +0.104 C 
ENDBRANCH  30  31
ENDBRANCH  19  30
TORSDOF 5
