REMARK  Name = 
REMARK  8 active torsions:
REMARK  status: ('A' for Active; 'I' for Inactive)
REMARK    1  A    between atoms: C_1  and  C_2
REMARK    2  A    between atoms: C_2  and  C_3
REMARK    3  A    between atoms: C_2  and  N_4
REMARK    4  A    between atoms: N_7  and  S_8
REMARK    5  A    between atoms: S_8  and  C_11
REMARK    6  A    between atoms: C_12  and  N_13
REMARK    7  A    between atoms: N_13  and  C_14
REMARK    8  A    between atoms: C_18  and  C_19
REMARK                            x       y       z     vdW  Elec       q    Type
REMARK                         _______ _______ _______ _____ _____    ______ ____
ROOT
ATOM      1  C   UNL     1      -0.050  -0.517  -0.328  0.00  0.00    +0.148 A 
ATOM      2  C   UNL     1      -1.365  -0.851  -0.718  0.00  0.00    +0.061 A 
ATOM      3  C   UNL     1      -1.840  -2.150  -0.482  0.00  0.00    +0.045 A 
ATOM      4  C   UNL     1      -1.020  -3.083   0.151  0.00  0.00    +0.112 A 
ATOM      5  N   UNL     1       0.237  -2.737   0.531  0.00  0.00    -0.261 NA
ATOM      6  C   UNL     1       0.733  -1.492   0.309  0.00  0.00    +0.141 A 
ENDROOT
BRANCH   1   7
ATOM      7  S   UNL     1       0.598   1.109  -0.583  0.00  0.00    +0.079 S 
ATOM      8  O   UNL     1      -0.366   2.118  -0.026  0.00  0.00    -0.150 OA
ATOM      9  O   UNL     1       0.778   1.365  -2.054  0.00  0.00    -0.150 OA
BRANCH   7  13
ATOM     10  N   UNL     1       4.577   1.012   0.382  0.00  0.00    -0.296 N 
ATOM     11  C   UNL     1       3.348   0.818  -0.331  0.00  0.00    +0.319 C 
ATOM     12  O   UNL     1       3.345   0.213  -1.437  0.00  0.00    -0.251 OA
ATOM     13  N   UNL     1       2.121   1.308   0.223  0.00  0.00    -0.169 N 
ATOM     14  H   UNL     1       4.552   1.571   1.265  0.00  0.00    +0.151 HD
ATOM     15  H   UNL     1       2.132   1.794   1.147  0.00  0.00    +0.178 HD
BRANCH  10  17
ATOM     16  C   UNL     1       5.915  -1.038   0.166  0.00  0.00    +0.027 C 
ATOM     17  C   UNL     1       5.854   0.470  -0.094  0.00  0.00    +0.068 C 
ATOM     18  C   UNL     1       7.023   1.179   0.598  0.00  0.00    +0.027 C 
ENDBRANCH  10  17
ENDBRANCH   7  13
ENDBRANCH   1   7
BRANCH   2  19
ATOM     19  N   UNL     1      -2.198   0.105  -1.397  0.00  0.00    -0.313 N 
ATOM     20  H   UNL     1      -1.771   0.675  -2.161  0.00  0.00    +0.152 HD
BRANCH  19  21
ATOM     21  C   UNL     1      -3.597   0.289  -1.119  0.00  0.00    +0.032 A 
ATOM     22  C   UNL     1      -4.429   0.839  -2.105  0.00  0.00    +0.023 A 
ATOM     23  C   UNL     1      -5.786   1.054  -1.847  0.00  0.00    +0.002 A 
ATOM     24  C   UNL     1      -6.323   0.728  -0.600  0.00  0.00    +0.003 A 
ATOM     25  C   UNL     1      -5.506   0.178   0.399  0.00  0.00    -0.049 A 
ATOM     26  C   UNL     1      -6.070  -0.122   1.756  0.00  0.00    +0.044 C 
ATOM     27  C   UNL     1      -4.140  -0.018   0.143  0.00  0.00    +0.026 A 
ENDBRANCH  19  21
ENDBRANCH   2  19
TORSDOF 5
