REMARK  Name = 
REMARK  11 active torsions:
REMARK  status: ('A' for Active; 'I' for Inactive)
REMARK    1  A    between atoms: C_1  and  N_2
REMARK    2  A    between atoms: N_2  and  C_3
REMARK    3  A    between atoms: N_2  and  C_4
REMARK    4  A    between atoms: C_4  and  C_5
REMARK    5  A    between atoms: C_5  and  O_6
REMARK    6  A    between atoms: O_6  and  C_7
REMARK    7  A    between atoms: C_10  and  C_13
REMARK    8  A    between atoms: C_13  and  C_24
REMARK    9  A    between atoms: C_14  and  C_15
REMARK   10  A    between atoms: C_14  and  C_18
REMARK   11  A    between atoms: C_15  and  C_16
REMARK                            x       y       z     vdW  Elec       q    Type
REMARK                         _______ _______ _______ _____ _____    ______ ____
ROOT
ATOM      1  C   UNL     1      -2.108  -0.637   0.201  0.00  0.00    -0.007 C 
ATOM      2  C   UNL     1      -2.970   0.025   1.024  0.00  0.00    -0.031 C 
ENDROOT
BRANCH   1   6
ATOM      3  C   UNL     1       1.928   0.712  -0.445  0.00  0.00    +0.121 A 
ATOM      4  C   UNL     1       1.079   0.453  -1.537  0.00  0.00    +0.046 A 
ATOM      5  C   UNL     1      -0.231   0.013  -1.323  0.00  0.00    +0.012 A 
ATOM      6  C   UNL     1      -0.716  -0.163  -0.018  0.00  0.00    -0.017 A 
ATOM      7  C   UNL     1       0.139   0.079   1.070  0.00  0.00    +0.012 A 
ATOM      8  C   UNL     1       1.447   0.519   0.855  0.00  0.00    +0.046 A 
BRANCH   3   9
ATOM      9  O   UNL     1       3.248   1.157  -0.606  0.00  0.00    -0.491 OA
BRANCH   9  10
ATOM     10  C   UNL     1       3.881   1.369  -1.865  0.00  0.00    +0.244 C 
BRANCH  10  11
ATOM     11  C   UNL     1       5.328   1.855  -1.661  0.00  0.00    +0.124 C 
BRANCH  11  13
ATOM     12  C   UNL     1       5.951   0.205   0.066  0.00  0.00    +0.104 C 
ATOM     13  N   UNL     1       6.286   0.809  -1.233  0.00  0.00    -0.305 NA
ATOM     14  C   UNL     1       6.514  -0.222  -2.258  0.00  0.00    +0.104 C 
ENDBRANCH  11  13
ENDBRANCH  10  11
ENDBRANCH   9  10
ENDBRANCH   3   9
ENDBRANCH   1   6
BRANCH   2  15
ATOM     15  C   UNL     1      -2.639   1.378   1.550  0.00  0.00    -0.021 A 
ATOM     16  C   UNL     1      -2.314   2.422   0.665  0.00  0.00    +0.008 A 
ATOM     17  C   UNL     1      -1.999   3.692   1.157  0.00  0.00    +0.001 A 
ATOM     18  C   UNL     1      -2.016   3.934   2.532  0.00  0.00    +0.000 A 
ATOM     19  C   UNL     1      -2.352   2.908   3.418  0.00  0.00    +0.001 A 
ATOM     20  C   UNL     1      -2.666   1.635   2.931  0.00  0.00    +0.008 A 
ENDBRANCH   2  15
BRANCH   1  21
ATOM     21  C   UNL     1      -2.494  -1.886  -0.497  0.00  0.00    -0.017 A 
ATOM     22  C   UNL     1      -3.475  -1.868  -1.502  0.00  0.00    +0.008 A 
ATOM     23  C   UNL     1      -3.807  -3.044  -2.183  0.00  0.00    +0.001 A 
ATOM     24  C   UNL     1      -3.149  -4.239  -1.878  0.00  0.00    +0.000 A 
ATOM     25  C   UNL     1      -2.154  -4.258  -0.897  0.00  0.00    +0.001 A 
ATOM     26  C   UNL     1      -1.820  -3.085  -0.214  0.00  0.00    +0.008 A 
ENDBRANCH   1  21
BRANCH   2  27
ATOM     27  C   UNL     1      -4.309  -0.566   1.431  0.00  0.00    +0.052 C 
BRANCH  27  28
ATOM     28  C   UNL     1      -4.144  -1.720   2.421  0.00  0.00    +0.113 C 
ATOM     29 CL   UNL     1      -5.743  -2.324   2.925  0.00  0.00    -0.125 Cl
ENDBRANCH  27  28
ENDBRANCH   2  27
TORSDOF 9
