REMARK  Name = 
REMARK  13 active torsions:
REMARK  status: ('A' for Active; 'I' for Inactive)
REMARK    1  A    between atoms: C_5  and  O_6
REMARK    2  A    between atoms: C_7  and  O_8
REMARK    3  A    between atoms: O_8  and  C_9
REMARK    4  A    between atoms: C_10  and  C_11
REMARK    5  A    between atoms: N_14  and  C_15
REMARK    6  A    between atoms: C_18  and  O_19
REMARK    7  A    between atoms: C_30  and  O_31
REMARK    8  A    between atoms: O_31  and  C_32
REMARK    9  A    between atoms: C_32  and  C_33
REMARK   10  A    between atoms: C_35  and  C_36
REMARK   11  A    between atoms: C_48  and  O_49
REMARK   12  A    between atoms: C_50  and  O_51
REMARK   13  A    between atoms: O_51  and  C_52
REMARK                            x       y       z     vdW  Elec       q    Type
REMARK                         _______ _______ _______ _____ _____    ______ ____
ROOT
ATOM      1  C   UNL     1      -4.766  -0.068  -1.737  0.00  0.00    +0.105 C 
ATOM      2  C   UNL     1      -4.305  -1.479  -2.182  0.00  0.00    +0.058 C 
ATOM      3  C   UNL     1      -2.922  -1.517  -2.790  0.00  0.00    -0.037 A 
ATOM      4  C   UNL     1      -2.232  -0.334  -3.102  0.00  0.00    +0.020 A 
ATOM      5  C   UNL     1      -1.076  -0.393  -3.911  0.00  0.00    +0.164 A 
ATOM      6  C   UNL     1      -0.535  -1.638  -4.299  0.00  0.00    +0.164 A 
ATOM      7  C   UNL     1      -1.221  -2.827  -3.955  0.00  0.00    -0.005 A 
ATOM      8  C   UNL     1      -0.752  -4.179  -4.418  0.00  0.00    +0.047 C 
ATOM      9  C   UNL     1      -2.405  -2.748  -3.208  0.00  0.00    +0.011 A 
ATOM     10  C   UNL     1      -2.754   0.991  -2.564  0.00  0.00    +0.109 C 
ATOM     11  N   UNL     1      -4.229   1.005  -2.600  0.00  0.00    -0.290 NA
ATOM     12  C   UNL     1      -4.780   0.976  -3.966  0.00  0.00    +0.106 C 
ATOM     13  C   UNL     1      -2.307   1.287  -1.092  0.00  0.00    +0.099 C 
ATOM     14  N   UNL     1      -2.894   0.314  -0.131  0.00  0.00    -0.260 NA
ATOM     15  C   UNL     1      -4.370   0.231  -0.277  0.00  0.00    +0.204 C 
ATOM     16  C   UNL     1      -2.515   0.503   1.309  0.00  0.00    +0.131 C 
ATOM     17  C   UNL     1      -2.101  -0.856   1.899  0.00  0.00    +0.256 C 
ATOM     18  O   UNL     1      -1.035  -1.385   1.124  0.00  0.00    -0.461 OA
ATOM     19  C   UNL     1       0.145  -1.889   1.670  0.00  0.00    +0.333 C 
ATOM     20  O   UNL     1       0.096  -2.625   2.698  0.00  0.00    -0.248 OA
ATOM     21  C   UNL     1       1.466  -1.617   0.972  0.00  0.00    +0.152 C 
ATOM     22  C   UNL     1       1.411  -0.225   0.250  0.00  0.00    +0.108 C 
ATOM     23  S   UNL     1       0.165  -0.148  -1.115  0.00  0.00    -0.148 S 
ATOM     24  C   UNL     1      -0.776   1.442  -0.873  0.00  0.00    +0.099 C 
ATOM     25  C   UNL     1      -0.606   2.031   0.497  0.00  0.00    +0.018 A 
ATOM     26  C   UNL     1       0.389   3.021   0.755  0.00  0.00    +0.143 A 
ATOM     27  C   UNL     1       0.543   3.545   2.066  0.00  0.00    +0.038 A 
ATOM     28  C   UNL     1       1.537   4.620   2.389  0.00  0.00    +0.051 C 
ATOM     29  C   UNL     1      -0.265   3.014   3.072  0.00  0.00    +0.173 A 
ATOM     30  O   UNL     1      -0.289   3.344   4.416  0.00  0.00    -0.452 OA
ATOM     31  C   UNL     1      -1.293   2.547   5.055  0.00  0.00    +0.466 C 
ATOM     32  O   UNL     1      -1.855   1.751   4.001  0.00  0.00    -0.452 OA
ATOM     33  C   UNL     1      -1.200   2.062   2.825  0.00  0.00    +0.172 A 
ATOM     34  C   UNL     1      -1.422   1.542   1.544  0.00  0.00    +0.026 A 
ATOM     35  N   UNL     1       1.686  -2.732   0.021  0.00  0.00    -0.297 NA
ATOM     36  C   UNL     1       3.053  -2.790  -0.506  0.00  0.00    +0.087 C 
ATOM     37  C   UNL     1       4.024  -3.119   0.618  0.00  0.00    +0.051 C 
ATOM     38  C   UNL     1       3.808  -2.243   1.820  0.00  0.00    -0.037 A 
ATOM     39  C   UNL     1       4.822  -2.150   2.782  0.00  0.00    +0.053 A 
ATOM     40  C   UNL     1       4.657  -1.356   3.923  0.00  0.00    +0.159 A 
ATOM     41  C   UNL     1       3.473  -0.639   4.119  0.00  0.00    +0.162 A 
ATOM     42  C   UNL     1       2.445  -0.740   3.163  0.00  0.00    +0.055 A 
ATOM     43  C   UNL     1       2.588  -1.560   2.020  0.00  0.00    -0.009 A 
ATOM     44  H   UNL     1       1.014  -2.692  -0.778  0.00  0.00    +0.123 HD
ENDROOT
BRANCH   5  45
ATOM     45  O   UNL     1      -0.442   0.795  -4.285  0.00  0.00    -0.503 OA
ATOM     46  H   UNL     1       0.410   0.813  -4.836  0.00  0.00    +0.292 HD
ENDBRANCH   5  45
BRANCH   6  47
ATOM     47  O   UNL     1       0.671  -1.642  -5.019  0.00  0.00    -0.491 OA
ATOM     48  C   UNL     1       1.804  -2.444  -4.690  0.00  0.00    +0.277 C 
ENDBRANCH   6  47
BRANCH  15  49
ATOM     49  O   UNL     1      -4.970   1.444   0.122  0.00  0.00    -0.376 OA
ATOM     50  H   UNL     1      -5.895   1.230   0.401  0.00  0.00    +0.212 HD
ENDBRANCH  15  49
BRANCH  40  51
ATOM     51  O   UNL     1       5.675  -1.278   4.875  0.00  0.00    -0.503 OA
ATOM     52  H   UNL     1       6.548  -1.774   4.761  0.00  0.00    +0.292 HD
ENDBRANCH  40  51
BRANCH  41  53
ATOM     53  O   UNL     1       3.353   0.161   5.264  0.00  0.00    -0.491 OA
ATOM     54  C   UNL     1       2.188   0.911   5.598  0.00  0.00    +0.277 C 
ENDBRANCH  41  53
BRANCH  26  55
ATOM     55  O   UNL     1       1.180   3.485  -0.308  0.00  0.00    -0.425 OA
BRANCH  55  56
ATOM     56  C   UNL     1       2.566   3.314  -0.373  0.00  0.00    +0.309 C 
ATOM     57  C   UNL     1       3.326   3.882  -1.522  0.00  0.00    +0.136 C 
ATOM     58  O   UNL     1       3.175   2.644   0.503  0.00  0.00    -0.251 OA
ENDBRANCH  55  56
ENDBRANCH  26  55
TORSDOF 7
