REMARK  Name = 
REMARK  8 active torsions:
REMARK  status: ('A' for Active; 'I' for Inactive)
REMARK    1  A    between atoms: C_1  and  O_2
REMARK    2  A    between atoms: O_2  and  C_3
REMARK    3  A    between atoms: C_7  and  C_9
REMARK    4  A    between atoms: C_9  and  O_10
REMARK    5  A    between atoms: C_15  and  C_16
REMARK    6  A    between atoms: C_16  and  N_17
REMARK    7  A    between atoms: N_17  and  C_18
REMARK    8  A    between atoms: N_17  and  C_19
REMARK                            x       y       z     vdW  Elec       q    Type
REMARK                         _______ _______ _______ _____ _____    ______ ____
ROOT
ATOM      1  C   UNL     1      -0.068  -0.942  -1.108  0.00  0.00    +0.095 C 
ATOM      2  C   UNL     1       0.390  -2.425  -0.854  0.00  0.00    +0.040 C 
ATOM      3  C   UNL     1      -0.607  -3.261  -0.030  0.00  0.00    +0.003 C 
ATOM      4  C   UNL     1      -2.050  -2.843  -0.303  0.00  0.00    +0.001 C 
ATOM      5  C   UNL     1      -2.304  -1.377   0.094  0.00  0.00    +0.008 C 
ATOM      6  C   UNL     1      -1.035  -0.479   0.033  0.00  0.00    +0.039 C 
ENDROOT
BRANCH   1  11
ATOM      7  C   UNL     1       3.138   0.950  -0.073  0.00  0.00    +0.120 A 
ATOM      8  C   UNL     1       3.379   1.727  -1.208  0.00  0.00    +0.045 A 
ATOM      9  C   UNL     1       2.526   1.655  -2.308  0.00  0.00    +0.004 A 
ATOM     10  C   UNL     1       1.424   0.798  -2.290  0.00  0.00    +0.007 A 
ATOM     11  C   UNL     1       1.164  -0.019  -1.168  0.00  0.00    -0.012 A 
ATOM     12  C   UNL     1       2.029   0.083  -0.055  0.00  0.00    +0.052 A 
BRANCH   7  14
ATOM     13  C   UNL     1       3.888   0.353   2.237  0.00  0.00    +0.277 C 
ATOM     14  O   UNL     1       4.016   1.071   1.014  0.00  0.00    -0.495 OA
ENDBRANCH   7  14
ENDBRANCH   1  11
BRANCH   1  15
ATOM     15  O   UNL     1      -0.793  -0.885  -2.320  0.00  0.00    -0.384 OA
ATOM     16  H   UNL     1      -0.235  -1.273  -3.044  0.00  0.00    +0.211 HD
ENDBRANCH   1  15
BRANCH   6  17
ATOM     17  C   UNL     1      -1.441   1.013  -0.099  0.00  0.00    +0.090 C 
BRANCH  17  18
ATOM     18  N   UNL     1      -2.376   1.414   0.977  0.00  0.00    -0.308 NA
ATOM     19  C   UNL     1      -3.188   2.563   0.544  0.00  0.00    +0.104 C 
ATOM     20  C   UNL     1      -1.648   1.767   2.209  0.00  0.00    +0.104 C 
ENDBRANCH  17  18
ENDBRANCH   6  17
TORSDOF 5
