REMARK  Name = 
REMARK  8 active torsions:
REMARK  status: ('A' for Active; 'I' for Inactive)
REMARK    1  A    between atoms: C_1  and  N_2
REMARK    2  A    between atoms: C_5  and  C_6
REMARK    3  A    between atoms: N_8  and  C_28
REMARK    4  A    between atoms: N_11  and  C_12
REMARK    5  A    between atoms: C_18  and  N_19
REMARK    6  A    between atoms: N_19  and  C_20
REMARK    7  A    between atoms: C_30  and  N_31
REMARK    8  A    between atoms: C_32  and  C_33
REMARK                            x       y       z     vdW  Elec       q    Type
REMARK                         _______ _______ _______ _____ _____    ______ ____
ROOT
ATOM      1  C   UNL     1       1.021   0.015  -0.135  0.00  0.00    +0.154 C 
ATOM      2  N   UNL     1       0.590   1.251  -0.776  0.00  0.00    -0.299 N 
ATOM      3  C   UNL     1       1.119   2.369  -0.147  0.00  0.00    +0.257 A 
ATOM      4  O   UNL     1       1.862   2.288   0.834  0.00  0.00    -0.267 OA
ATOM      5  C   UNL     1       0.805   3.700  -0.714  0.00  0.00    +0.039 A 
ATOM      6  C   UNL     1       1.452   4.811   0.060  0.00  0.00    +0.051 C 
ATOM      7  C   UNL     1       0.045   3.785  -1.831  0.00  0.00    +0.075 A 
ATOM      8  N   UNL     1      -0.234   4.985  -2.520  0.00  0.00    -0.261 N 
ATOM      9  C   UNL     1      -1.078   5.083  -3.640  0.00  0.00    +0.337 A 
ATOM     10  O   UNL     1      -1.292   6.188  -4.150  0.00  0.00    -0.246 OA
ATOM     11  N   UNL     1      -1.660   3.923  -4.114  0.00  0.00    -0.257 N 
ATOM     12  C   UNL     1      -1.750   2.838  -3.267  0.00  0.00    +0.268 A 
ATOM     13  O   UNL     1      -2.807   2.204  -3.166  0.00  0.00    -0.267 OA
ATOM     14  C   UNL     1      -0.598   2.569  -2.343  0.00  0.00    +0.102 A 
ATOM     15  C   UNL     1      -0.295   1.308  -1.880  0.00  0.00    +0.120 A 
ENDROOT
BRANCH   8  16
ATOM     16  C   UNL     1       0.211   6.271  -2.078  0.00  0.00    +0.053 A 
ATOM     17  C   UNL     1      -0.739   7.116  -1.504  0.00  0.00    +0.049 A 
ATOM     18  C   UNL     1      -0.392   8.321  -0.906  0.00  0.00    +0.035 A 
ATOM     19  C   UNL     1       0.969   8.647  -0.843  0.00  0.00    +0.023 A 
ATOM     20  C   UNL     1       1.928   7.821  -1.462  0.00  0.00    +0.004 A 
ATOM     21  C   UNL     1       1.538   6.670  -2.149  0.00  0.00    +0.026 A 
BRANCH  18  22
ATOM     22  N   UNL     1      -1.381   9.179  -0.356  0.00  0.00    -0.286 N 
ATOM     23  C   UNL     1      -2.750   8.935  -0.406  0.00  0.00    +0.214 C 
ATOM     24  C   UNL     1      -3.630   9.998   0.174  0.00  0.00    +0.109 C 
ATOM     25  O   UNL     1      -3.311   7.942  -0.867  0.00  0.00    -0.276 OA
ATOM     26  H   UNL     1      -1.056  10.044   0.057  0.00  0.00    +0.155 HD
ENDBRANCH  18  22
ENDBRANCH   8  16
BRANCH  11  27
ATOM     27  C   UNL     1      -2.660   3.992  -5.201  0.00  0.00    +0.095 C 
ATOM     28  C   UNL     1      -3.261   5.244  -5.788  0.00  0.00    +0.027 C 
ATOM     29  C   UNL     1      -2.285   4.431  -6.594  0.00  0.00    +0.027 C 
ENDBRANCH  11  27
BRANCH  15  30
ATOM     30  N   UNL     1      -0.800   0.085  -2.370  0.00  0.00    -0.298 N 
ATOM     31  H   UNL     1      -0.823  -0.675  -1.704  0.00  0.00    +0.154 HD
BRANCH  30  32
ATOM     32  C   UNL     1      -1.623  -0.154  -3.496  0.00  0.00    +0.068 A 
ATOM     33  C   UNL     1      -2.941  -0.620  -3.313  0.00  0.00    +0.027 A 
ATOM     34  C   UNL     1      -3.871  -0.553  -4.363  0.00  0.00    +0.016 A 
ATOM     35  C   UNL     1      -3.482  -0.051  -5.607  0.00  0.00    +0.016 A 
ATOM     36  I   UNL     1      -4.882   0.150  -7.131  0.00  0.00    -0.044 I 
ATOM     37  C   UNL     1      -2.174   0.377  -5.817  0.00  0.00    +0.054 A 
ATOM     38  C   UNL     1      -1.258   0.308  -4.771  0.00  0.00    +0.145 A 
ATOM     39  F   UNL     1      -0.038   0.838  -4.957  0.00  0.00    -0.204 F 
ENDBRANCH  30  32
ENDBRANCH  15  30
TORSDOF 5
