REMARK  Name = 
REMARK  13 active torsions:
REMARK  status: ('A' for Active; 'I' for Inactive)
REMARK    1  A    between atoms: CA_3  and  C_29
REMARK    2  A    between atoms: C_5  and  CA_7
REMARK    3  A    between atoms: CA_7  and  CB_8
REMARK    4  A    between atoms: CA_7  and  N_9
REMARK    5  A    between atoms: N_9  and  C_10
REMARK    6  A    between atoms: C_10  and  C_11
REMARK    7  A    between atoms: C_10  and  C_19
REMARK    8  A    between atoms: C_11  and  C_12
REMARK    9  A    between atoms: C_12  and  C_13
REMARK   10  A    between atoms: C_19  and  O_21
REMARK   11  A    between atoms: O_21  and  C_22
REMARK   12  A    between atoms: C_22  and  C_23
REMARK   13  A    between atoms: C_29  and  O_30
REMARK                            x       y       z     vdW  Elec       q    Type
REMARK                         _______ _______ _______ _____ _____    ______ ____
ROOT
ATOM      1  CA  ALA A   1       0.395   0.951  -0.699  0.00  0.00    +0.138 C 
ATOM      2  CB  ALA A   1       0.264   1.770   0.592  0.00  0.00    +0.034 C 
ENDROOT
BRANCH   1   7
ATOM      3  C   ALA A   1       4.478  -0.545   1.189  0.00  0.00    +0.012 C 
ATOM      4  C   ALA A   1       3.730  -1.718   1.808  0.00  0.00    +0.039 C 
ATOM      5  CA  ALA A   1       2.251  -1.418   1.483  0.00  0.00    +0.185 C 
ATOM      6  N   ALA A   1       2.262  -0.407   0.417  0.00  0.00    -0.283 N 
ATOM      7  C   ALA A   1       1.189  -0.324  -0.531  0.00  0.00    +0.233 C 
ATOM      8  O   ALA A   1       1.023  -1.271  -1.345  0.00  0.00    -0.274 OA
ATOM      9  C   ALA A   1       3.635  -0.193  -0.018  0.00  0.00    +0.080 C 
ATOM     10  C   ALA A   1       3.972   1.229  -0.489  0.00  0.00    +0.023 C 
ATOM     11  C   ALA A   1       5.503   1.497  -0.424  0.00  0.00    +0.002 C 
ATOM     12  C   ALA A   1       6.363   0.207  -0.364  0.00  0.00    +0.000 C 
ATOM     13  C   ALA A   1       5.943  -0.766   0.773  0.00  0.00    +0.005 C 
BRANCH   5  14
ATOM     14  C   ALA A   1       1.501  -0.923   2.692  0.00  0.00    +0.325 C 
ATOM     15  OXT ALA A   1       0.690  -1.692   3.273  0.00  0.00    -0.249 OA
BRANCH  14  16
ATOM     16  O   ALA A   1       1.717   0.352   3.212  0.00  0.00    -0.479 OA
ATOM     17  H   ALA A   1       2.349   1.011   2.775  0.00  0.00    +0.295 HD
ENDBRANCH  14  16
ENDBRANCH   5  14
ENDBRANCH   1   7
BRANCH   1  18
ATOM     18  N   ALA A   1      -0.898   0.707  -1.389  0.00  0.00    -0.294 NA
ATOM     19  H   ALA A   1      -1.174   1.579  -1.897  0.00  0.00    +0.123 HD
BRANCH  18  20
ATOM     20  C   UNK A   0      -2.070   0.214  -0.618  0.00  0.00    +0.164 C 
BRANCH  20  21
ATOM     21  C   UNK A   0      -2.709   1.307   0.210  0.00  0.00    +0.324 C 
ATOM     22  O   UNK A   0      -2.719   1.246   1.470  0.00  0.00    -0.249 OA
BRANCH  21  23
ATOM     23  O   UNK A   0      -3.266   2.410  -0.448  0.00  0.00    -0.464 OA
BRANCH  23  24
ATOM     24  C   UNK A   0      -3.918   3.472   0.242  0.00  0.00    +0.229 C 
ATOM     25  C   UNK A   0      -4.275   4.571  -0.748  0.00  0.00    +0.048 C 
ENDBRANCH  23  24
ENDBRANCH  21  23
ENDBRANCH  20  21
BRANCH  20  26
ATOM     26  C   UNK A   0      -1.787  -1.098   0.160  0.00  0.00    +0.035 C 
BRANCH  26  27
ATOM     27  C   UNK A   0      -3.057  -1.798   0.684  0.00  0.00    +0.037 C 
BRANCH  27  28
ATOM     28  C   UNK A   0      -3.938  -2.294  -0.435  0.00  0.00    -0.047 A 
ATOM     29  C   UNK A   0      -3.591  -3.457  -1.143  0.00  0.00    +0.003 A 
ATOM     30  C   UNK A   0      -4.379  -3.888  -2.216  0.00  0.00    +0.000 A 
ATOM     31  C   UNK A   0      -5.516  -3.163  -2.586  0.00  0.00    +0.000 A 
ATOM     32  C   UNK A   0      -5.870  -2.009  -1.884  0.00  0.00    +0.000 A 
ATOM     33  C   UNK A   0      -5.081  -1.569  -0.817  0.00  0.00    +0.003 A 
ENDBRANCH  27  28
ENDBRANCH  26  27
ENDBRANCH  20  26
ENDBRANCH  18  20
ENDBRANCH   1  18
TORSDOF 11
