REMARK  Name = 
REMARK  2 active torsions:
REMARK  status: ('A' for Active; 'I' for Inactive)
REMARK    1  A    between atoms: N_1  and  C_2
REMARK    2  A    between atoms: C_4  and  C_5
REMARK                            x       y       z     vdW  Elec       q    Type
REMARK                         _______ _______ _______ _____ _____    ______ ____
ROOT
ATOM      1  C   UNL     1      -2.173  -0.414  -0.485  0.00  0.00    +0.059 C 
ATOM      2  C   UNL     1      -1.909  -1.071   0.859  0.00  0.00    +0.028 C 
ATOM      3  C   UNL     1      -0.879  -1.200  -0.264  0.00  0.00    +0.037 C 
ENDROOT
BRANCH   3   4
ATOM      4  C   UNL     1       0.389  -0.405  -0.076  0.00  0.00    -0.043 A 
ATOM      5  C   UNL     1       0.902   0.354  -1.140  0.00  0.00    +0.004 A 
ATOM      6  C   UNL     1       2.104   1.053  -0.992  0.00  0.00    +0.000 A 
ATOM      7  C   UNL     1       2.813   0.981   0.210  0.00  0.00    +0.000 A 
ATOM      8  C   UNL     1       2.325   0.202   1.263  0.00  0.00    +0.000 A 
ATOM      9  C   UNL     1       1.123  -0.498   1.119  0.00  0.00    +0.004 A 
ENDBRANCH   3   4
BRANCH   1  10
ATOM     10  N   UNL     1      -2.050   1.038  -0.429  0.00  0.00    -0.327 NA
ATOM     11  H   UNL     1      -1.963   1.377  -1.413  0.00  0.00    +0.118 HD
ATOM     12  H   UNL     1      -2.957   1.411  -0.066  0.00  0.00    +0.118 HD
ENDBRANCH   1  10
TORSDOF 2
