REMARK  Name = 
REMARK  4 active torsions:
REMARK  status: ('A' for Active; 'I' for Inactive)
REMARK    1  A    between atoms: N_1  and  C_2
REMARK    2  A    between atoms: C_2  and  C_3
REMARK    3  A    between atoms: C_6  and  C_9
REMARK    4  A    between atoms: C_9  and  O_10
REMARK                            x       y       z     vdW  Elec       q    Type
REMARK                         _______ _______ _______ _____ _____    ______ ____
ROOT
ATOM      1  C   UNL     1       1.229  -0.026   0.474  0.00  0.00    +0.003 C 
ATOM      2  C   UNL     1       0.181   1.036   0.907  0.00  0.00    +0.005 C 
ATOM      3  C   UNL     1      -0.921   1.223  -0.144  0.00  0.00    +0.015 C 
ATOM      4  C   UNL     1      -1.698  -0.093  -0.415  0.00  0.00    +0.098 C 
ATOM      5  C   UNL     1      -0.860  -1.361  -0.127  0.00  0.00    +0.015 C 
ATOM      6  C   UNL     1       0.621  -1.124  -0.440  0.00  0.00    +0.005 C 
ENDROOT
BRANCH   4   7
ATOM      7  C   UNL     1      -2.989  -0.138   0.358  0.00  0.00    +0.308 C 
ATOM      8  O   UNL     1      -2.989   0.002   1.611  0.00  0.00    -0.251 OA
BRANCH   7   9
ATOM      9  O   UNL     1      -4.189  -0.355  -0.313  0.00  0.00    -0.480 OA
ATOM     10  H   UNL     1      -5.066  -0.396   0.191  0.00  0.00    +0.295 HD
ENDBRANCH   7   9
ENDBRANCH   4   7
BRANCH   1  11
ATOM     11  C   UNL     1       2.444   0.641  -0.201  0.00  0.00    +0.081 C 
BRANCH  11  12
ATOM     12  N   UNL     1       3.467  -0.350  -0.526  0.00  0.00    -0.330 NA
ATOM     13  H   UNL     1       4.236   0.141  -1.037  0.00  0.00    +0.118 HD
ATOM     14  H   UNL     1       3.880  -0.699   0.369  0.00  0.00    +0.118 HD
ENDBRANCH  11  12
ENDBRANCH   1  11
TORSDOF 4
