REMARK  Name = 
REMARK  19 active torsions:
REMARK  status: ('A' for Active; 'I' for Inactive)
REMARK    1  A    between atoms: C_1  and  C_2
REMARK    2  A    between atoms: C_2  and  C_3
REMARK    3  A    between atoms: C_2  and  O_4
REMARK    4  A    between atoms: O_4  and  C_5
REMARK    5  A    between atoms: C_5  and  C_7
REMARK    6  A    between atoms: C_7  and  C_8
REMARK    7  A    between atoms: C_8  and  C_9
REMARK    8  A    between atoms: C_9  and  C_10
REMARK    9  A    between atoms: C_11  and  C_12
REMARK   10  A    between atoms: C_12  and  C_13
REMARK   11  A    between atoms: C_14  and  O_15
REMARK   12  A    between atoms: C_17  and  O_18
REMARK   13  A    between atoms: C_19  and  C_20
REMARK   14  A    between atoms: C_21  and  C_22
REMARK   15  A    between atoms: C_22  and  O_23
REMARK   16  A    between atoms: C_22  and  C_24
REMARK   17  A    between atoms: C_24  and  O_25
REMARK   18  A    between atoms: O_25  and  C_26
REMARK   19  A    between atoms: C_30  and  C_32
REMARK                            x       y       z     vdW  Elec       q    Type
REMARK                         _______ _______ _______ _____ _____    ______ ____
ROOT
ATOM      1  C   UNL     1      -0.515   0.722  -0.614  0.00  0.00    +0.031 C 
ATOM      2  C   UNL     1      -1.242   0.707   0.734  0.00  0.00    +0.121 C 
ATOM      3  C   UNL     1      -0.114   0.758   1.771  0.00  0.00    +0.063 C 
ATOM      4  C   UNL     1       1.171   0.290   1.065  0.00  0.00    +0.124 C 
ATOM      5  C   UNL     1       0.764  -0.084  -0.369  0.00  0.00    +0.046 C 
ENDROOT
BRANCH   2   6
ATOM      6  O   UNL     1      -1.983  -0.476   0.899  0.00  0.00    -0.391 OA
ATOM      7  H   UNL     1      -2.593  -0.322   1.669  0.00  0.00    +0.210 HD
ENDBRANCH   2   6
BRANCH   4   8
ATOM      8  O   UNL     1       1.729  -0.821   1.718  0.00  0.00    -0.391 OA
ATOM      9  H   UNL     1       2.158  -0.478   2.545  0.00  0.00    +0.210 HD
ENDBRANCH   4   8
BRANCH   5  10
ATOM     10  C   UNL     1       1.850   0.231  -1.373  0.00  0.00    -0.022 C 
ATOM     11  C   UNL     1       2.989  -0.478  -1.409  0.00  0.00    +0.003 C 
BRANCH  11  12
ATOM     12  C   UNL     1       4.077  -0.153  -2.410  0.00  0.00    +0.174 C 
BRANCH  12  13
ATOM     13  O   UNL     1       4.542   1.165  -2.248  0.00  0.00    -0.384 OA
ATOM     14  H   UNL     1       4.701   1.315  -1.280  0.00  0.00    +0.210 HD
ENDBRANCH  12  13
BRANCH  12  15
ATOM     15  C   UNL     1       5.237  -1.162  -2.341  0.00  0.00    +0.264 C 
BRANCH  15  16
ATOM     16  O   UNL     1       5.843  -1.190  -1.046  0.00  0.00    -0.489 OA
BRANCH  16  17
ATOM     17  C   UNL     1       6.856  -0.332  -0.583  0.00  0.00    +0.121 A 
ATOM     18  C   UNL     1       7.486   0.624  -1.403  0.00  0.00    +0.045 A 
ATOM     19  C   UNL     1       8.491   1.442  -0.883  0.00  0.00    +0.004 A 
ATOM     20  C   UNL     1       8.880   1.319   0.453  0.00  0.00    +0.012 A 
ATOM     21  C   UNL     1       8.252   0.384   1.291  0.00  0.00    +0.058 A 
ATOM     22  C   UNL     1       7.255  -0.451   0.755  0.00  0.00    +0.058 A 
BRANCH  21  23
ATOM     23  C   UNL     1       8.709   0.208   2.718  0.00  0.00    +0.418 C 
ATOM     24  F   UNL     1       7.661  -0.212   3.518  0.00  0.00    -0.166 F 
ATOM     25  F   UNL     1       9.716  -0.738   2.760  0.00  0.00    -0.166 F 
ATOM     26  F   UNL     1       9.191   1.402   3.229  0.00  0.00    -0.166 F 
ENDBRANCH  21  23
ENDBRANCH  16  17
ENDBRANCH  15  16
ENDBRANCH  12  15
ENDBRANCH  11  12
ENDBRANCH   5  10
BRANCH   1  27
ATOM     27  C   UNL     1      -1.359   0.304  -1.846  0.00  0.00    +0.033 C 
BRANCH  27  29
ATOM     28  C   UNL     1      -3.072  -1.553  -2.099  0.00  0.00    -0.031 C 
ATOM     29  C   UNL     1      -1.816  -1.141  -1.845  0.00  0.00    -0.031 C 
BRANCH  28  30
ATOM     30  C   UNL     1      -4.248  -0.647  -2.373  0.00  0.00    +0.027 C 
BRANCH  30  31
ATOM     31  C   UNL     1      -4.821  -0.021  -1.093  0.00  0.00    +0.015 C 
BRANCH  31  32
ATOM     32  C   UNL     1      -5.426  -1.074  -0.154  0.00  0.00    +0.121 C 
BRANCH  32  33
ATOM     33  C   UNL     1      -6.044  -0.419   1.040  0.00  0.00    +0.307 C 
ATOM     34  O   UNL     1      -5.493  -0.524   2.171  0.00  0.00    -0.251 OA
BRANCH  33  35
ATOM     35  O   UNL     1      -7.212   0.335   0.881  0.00  0.00    -0.462 OA
BRANCH  35  37
ATOM     36  C   UNL     1      -8.862   1.999   1.421  0.00  0.00    +0.052 C 
ATOM     37  C   UNL     1      -7.926   0.923   1.969  0.00  0.00    +0.170 C 
ATOM     38  C   UNL     1      -8.721  -0.152   2.716  0.00  0.00    +0.052 C 
ENDBRANCH  35  37
ENDBRANCH  33  35
ENDBRANCH  32  33
ENDBRANCH  31  32
ENDBRANCH  30  31
ENDBRANCH  28  30
ENDBRANCH  27  29
ENDBRANCH   1  27
TORSDOF 17
