REMARK  Name = 
REMARK  5 active torsions:
REMARK  status: ('A' for Active; 'I' for Inactive)
REMARK    1  A    between atoms: C_6  and  N_8
REMARK    2  A    between atoms: N_11  and  C_12
REMARK    3  A    between atoms: C_12  and  C_13
REMARK    4  A    between atoms: C_13  and  C_14
REMARK    5  A    between atoms: C_14  and  N_15
REMARK                            x       y       z     vdW  Elec       q    Type
REMARK                         _______ _______ _______ _____ _____    ______ ____
ROOT
ATOM      1  N   UNL     1      -3.509   0.231  -0.291  0.00  0.00    -0.327 N 
ATOM      2  C   UNL     1      -2.465   0.461  -1.297  0.00  0.00    +0.120 C 
ATOM      3  C   UNL     1      -1.083   0.218  -0.678  0.00  0.00    +0.103 C 
ATOM      4  N   UNL     1      -0.823   1.067   0.515  0.00  0.00    -0.299 NA
ATOM      5  C   UNL     1      -2.050   1.508   1.228  0.00  0.00    +0.103 C 
ATOM      6  C   UNL     1      -3.200   0.499   1.119  0.00  0.00    +0.120 C 
ENDROOT
BRANCH   1  12
ATOM      7 CL   UNL     1      -7.337   0.229  -3.829  0.00  0.00    -0.083 Cl
ATOM      8  C   UNL     1      -6.656  -0.269  -2.291  0.00  0.00    +0.043 A 
ATOM      9  C   UNL     1      -7.388  -1.101  -1.440  0.00  0.00    +0.020 A 
ATOM     10  C   UNL     1      -6.848  -1.494  -0.213  0.00  0.00    +0.003 A 
ATOM     11  C   UNL     1      -5.576  -1.058   0.166  0.00  0.00    +0.023 A 
ATOM     12  C   UNL     1      -4.825  -0.221  -0.682  0.00  0.00    +0.031 A 
ATOM     13  C   UNL     1      -5.381   0.169  -1.916  0.00  0.00    +0.043 A 
ENDBRANCH   1  12
BRANCH   4  14
ATOM     14  C   UNL     1       0.139   0.430   1.442  0.00  0.00    +0.086 C 
BRANCH  14  15
ATOM     15  C   UNL     1       1.531   0.299   0.803  0.00  0.00    +0.039 C 
BRANCH  15  16
ATOM     16  C   UNL     1       2.559  -0.211   1.816  0.00  0.00    +0.150 C 
BRANCH  16  17
ATOM     17  N   UNL     1       3.865  -0.351   1.178  0.00  0.00    -0.212 N 
ATOM     18  N   UNL     1       4.287  -1.458   0.574  0.00  0.00    -0.149 NA
ATOM     19  C   UNL     1       5.498  -1.144   0.063  0.00  0.00    +0.162 A 
ATOM     20  C   UNL     1       6.341  -1.982  -0.662  0.00  0.00    +0.049 A 
ATOM     21  C   UNL     1       7.559  -1.443  -1.111  0.00  0.00    +0.005 A 
ATOM     22  C   UNL     1       7.895  -0.101  -0.830  0.00  0.00    +0.018 A 
ATOM     23  C   UNL     1       7.004   0.697  -0.096  0.00  0.00    +0.098 A 
ATOM     24  N   UNL     1       5.843   0.130   0.317  0.00  0.00    -0.251 N 
ATOM     25  C   UNL     1       4.801   0.607   1.011  0.00  0.00    +0.351 A 
ATOM     26  O   UNL     1       4.705   1.790   1.439  0.00  0.00    -0.244 OA
ENDBRANCH  16  17
ENDBRANCH  15  16
ENDBRANCH  14  15
ENDBRANCH   4  14
TORSDOF 5
