REMARK  Name = 
REMARK  14 active torsions:
REMARK  status: ('A' for Active; 'I' for Inactive)
REMARK    1  A    between atoms: C_3  and  O_4
REMARK    2  A    between atoms: C_5  and  C_6
REMARK    3  A    between atoms: C_6  and  C_7
REMARK    4  A    between atoms: C_7  and  C_8
REMARK    5  A    between atoms: C_8  and  O_9
REMARK    6  A    between atoms: C_8  and  C_10
REMARK    7  A    between atoms: C_10  and  C_11
REMARK    8  A    between atoms: C_11  and  C_12
REMARK    9  A    between atoms: C_12  and  C_13
REMARK   10  A    between atoms: C_13  and  C_14
REMARK   11  A    between atoms: C_20  and  O_21
REMARK   12  A    between atoms: O_21  and  C_22
REMARK   13  A    between atoms: C_22  and  C_23
REMARK   14  A    between atoms: C_23  and  O_24
REMARK                            x       y       z     vdW  Elec       q    Type
REMARK                         _______ _______ _______ _____ _____    ______ ____
ROOT
ATOM      1  C   UNL     1       1.959  -0.936  -1.658  0.00  0.00    -0.000 C 
ATOM      2  C   UNL     1       1.954  -2.437  -1.901  0.00  0.00    +0.035 C 
ATOM      3  C   UNL     1       0.494  -2.855  -1.703  0.00  0.00    +0.118 C 
ATOM      4  C   UNL     1      -0.189  -1.730  -0.875  0.00  0.00    +0.021 C 
ATOM      5  C   UNL     1       0.940  -0.725  -0.542  0.00  0.00    +0.002 C 
ATOM      6  C   UNL     1       1.526  -1.044   0.849  0.00  0.00    +0.039 C 
ATOM      7  C   UNL     1       2.857  -0.393   1.093  0.00  0.00    -0.040 A 
ATOM      8  C   UNL     1       3.756  -0.137   0.035  0.00  0.00    -0.002 A 
ATOM      9  C   UNL     1       3.357  -0.330  -1.411  0.00  0.00    +0.043 C 
ATOM     10  C   UNL     1       5.036   0.389   0.317  0.00  0.00    +0.125 A 
ATOM     11  C   UNL     1       5.411   0.624   1.654  0.00  0.00    +0.046 A 
ATOM     12  C   UNL     1       4.524   0.350   2.693  0.00  0.00    +0.004 A 
ATOM     13  C   UNL     1       3.259  -0.162   2.417  0.00  0.00    +0.004 A 
ENDROOT
BRANCH   3  14
ATOM     14  O   UNL     1       0.438  -4.083  -1.026  0.00  0.00    -0.391 OA
ATOM     15  H   UNL     1      -0.496  -4.408  -1.110  0.00  0.00    +0.210 HD
ENDBRANCH   3  14
BRANCH   4  16
ATOM     16  C   UNL     1      -1.349  -1.084  -1.674  0.00  0.00    +0.009 C 
BRANCH  16  17
ATOM     17  C   UNL     1      -2.198  -0.060  -0.891  0.00  0.00    +0.032 C 
BRANCH  17  18
ATOM     18  C   UNL     1      -2.948  -0.668   0.317  0.00  0.00    +0.115 C 
BRANCH  18  19
ATOM     19  O   UNL     1      -2.073  -0.714   1.415  0.00  0.00    -0.392 OA
ATOM     20  H   UNL     1      -2.412  -1.418   2.027  0.00  0.00    +0.210 HD
ENDBRANCH  18  19
BRANCH  18  21
ATOM     21  C   UNL     1      -4.182   0.176   0.704  0.00  0.00    +0.031 C 
BRANCH  21  22
ATOM     22  C   UNL     1      -5.387  -0.077  -0.222  0.00  0.00    +0.002 C 
BRANCH  22  23
ATOM     23  C   UNL     1      -6.664   0.623   0.269  0.00  0.00    -0.000 C 
BRANCH  23  24
ATOM     24  C   UNL     1      -6.610   2.147   0.083  0.00  0.00    -0.003 C 
ATOM     25  C   UNL     1      -7.937   2.795   0.470  0.00  0.00    +0.004 C 
ENDBRANCH  23  24
ENDBRANCH  22  23
ENDBRANCH  21  22
ENDBRANCH  18  21
ENDBRANCH  17  18
ENDBRANCH  16  17
ENDBRANCH   4  16
BRANCH  10  26
ATOM     26  O   UNL     1       5.904   0.664  -0.756  0.00  0.00    -0.481 OA
BRANCH  26  27
ATOM     27  C   UNL     1       7.202   1.248  -0.646  0.00  0.00    +0.349 C 
BRANCH  27  28
ATOM     28  C   UNL     1       7.108   2.691  -0.263  0.00  0.00    +0.343 C 
ATOM     29  O   UNL     1       6.257   3.437  -0.817  0.00  0.00    -0.247 OA
BRANCH  28  30
ATOM     30  O   UNL     1       7.993   3.218   0.673  0.00  0.00    -0.478 OA
ATOM     31  H   UNL     1       7.950   4.196   0.936  0.00  0.00    +0.295 HD
ENDBRANCH  28  30
ENDBRANCH  27  28
ENDBRANCH  26  27
ENDBRANCH  10  26
TORSDOF 13
