REMARK  Name = 
REMARK  11 active torsions:
REMARK  status: ('A' for Active; 'I' for Inactive)
REMARK    1  A    between atoms: C_1  and  C_2
REMARK    2  A    between atoms: C_2  and  C_3
REMARK    3  A    between atoms: C_4  and  C_5
REMARK    4  A    between atoms: C_6  and  C_7
REMARK    5  A    between atoms: C_11  and  C_12
REMARK    6  A    between atoms: C_11  and  C_13
REMARK    7  A    between atoms: C_14  and  C_15
REMARK    8  A    between atoms: C_16  and  C_17
REMARK    9  A    between atoms: C_17  and  C_18
REMARK   10  A    between atoms: C_19  and  C_20
REMARK   11  A    between atoms: C_20  and  O_21
REMARK                            x       y       z     vdW  Elec       q    Type
REMARK                         _______ _______ _______ _____ _____    ______ ____
ROOT
ATOM      1  C   UNL     1       0.887   0.997  -1.797  0.00  0.00    +0.044 C 
ATOM      2  C   UNL     1       0.785   0.428  -0.401  0.00  0.00    -0.050 C 
ATOM      3  C   UNL     1       1.880   0.186   0.346  0.00  0.00    +0.003 C 
ENDROOT
BRANCH   2   4
ATOM      4  C   UNL     1      -0.539   0.106   0.184  0.00  0.00    +0.003 C 
ATOM      5  C   UNL     1      -1.601  -0.234  -0.554  0.00  0.00    +0.004 C 
BRANCH   5   6
ATOM      6  C   UNL     1      -2.910  -0.528   0.077  0.00  0.00    -0.043 C 
ATOM      7  C   UNL     1      -3.111  -1.722   0.702  0.00  0.00    -0.069 C 
ATOM      8  C   UNL     1      -2.001  -2.742   0.814  0.00  0.00    +0.039 C 
ATOM      9  C   UNL     1      -4.415  -2.056   1.393  0.00  0.00    +0.031 C 
ATOM     10  C   UNL     1      -5.603  -1.275   0.844  0.00  0.00    +0.005 C 
ATOM     11  C   UNL     1      -5.257   0.208   0.777  0.00  0.00    +0.011 C 
ATOM     12  C   UNL     1      -4.050   0.474  -0.161  0.00  0.00    -0.010 C 
ATOM     13  C   UNL     1      -3.554   1.913   0.110  0.00  0.00    +0.016 C 
ATOM     14  C   UNL     1      -4.502   0.381  -1.637  0.00  0.00    +0.016 C 
ENDBRANCH   5   6
ENDBRANCH   2   4
BRANCH   3  15
ATOM     15  C   UNL     1       3.269   0.384  -0.126  0.00  0.00    +0.001 C 
ATOM     16  C   UNL     1       4.303   0.192   0.701  0.00  0.00    +0.003 C 
BRANCH  16  17
ATOM     17  C   UNL     1       5.719   0.380   0.290  0.00  0.00    -0.044 C 
ATOM     18  C   UNL     1       6.122   0.187  -1.153  0.00  0.00    +0.044 C 
ATOM     19  C   UNL     1       6.613   0.704   1.248  0.00  0.00    +0.094 C 
BRANCH  19  20
ATOM     20  C   UNL     1       8.041   1.019   1.031  0.00  0.00    +0.330 C 
ATOM     21  O   UNL     1       8.816   1.045   2.024  0.00  0.00    -0.246 OA
BRANCH  20  22
ATOM     22  O   UNL     1       8.539   1.339  -0.229  0.00  0.00    -0.478 OA
ATOM     23  H   UNL     1       9.517   1.570  -0.359  0.00  0.00    +0.295 HD
ENDBRANCH  20  22
ENDBRANCH  19  20
ENDBRANCH  16  17
ENDBRANCH   3  15
TORSDOF 6
