REMARK  Name = 
REMARK  2 active torsions:
REMARK  status: ('A' for Active; 'I' for Inactive)
REMARK    1  A    between atoms: C_1  and  C_2
REMARK    2  A    between atoms: C_8  and  C_9
REMARK                            x       y       z     vdW  Elec       q    Type
REMARK                         _______ _______ _______ _____ _____    ______ ____
ROOT
ATOM      1  C   UNL     1      -3.772   1.093   1.325  0.00  0.00    +0.088 C 
ATOM      2  C   UNL     1      -3.034  -0.194   1.522  0.00  0.00    +0.135 A 
ATOM      3  N   UNL     1      -3.242  -1.005   2.578  0.00  0.00    -0.134 NA
ATOM      4  N   UNL     1      -2.395  -2.019   2.465  0.00  0.00    -0.132 NA
ATOM      5  C   UNL     1      -1.694  -1.812   1.334  0.00  0.00    +0.159 A 
ATOM      6  C   UNL     1      -0.560  -2.658   0.874  0.00  0.00    +0.218 C 
ATOM      7  N   UNL     1       0.652  -1.851   0.871  0.00  0.00    -0.275 NA
ATOM      8  C   UNL     1       0.864  -0.788   0.143  0.00  0.00    +0.077 C 
ATOM      9  C   UNL     1      -0.149  -0.259  -0.826  0.00  0.00    +0.026 A 
ATOM     10  C   UNL     1      -1.537  -0.175  -0.527  0.00  0.00    +0.059 A 
ATOM     11  C   UNL     1      -2.418   0.346  -1.492  0.00  0.00    +0.028 A 
ATOM     12  C   UNL     1      -1.941   0.815  -2.716  0.00  0.00    +0.022 A 
ATOM     13  C   UNL     1      -0.579   0.756  -3.004  0.00  0.00    +0.042 A 
ATOM     14 CL   UNL     1       0.018   1.342  -4.545  0.00  0.00    -0.084 Cl
ATOM     15  C   UNL     1       0.309   0.220  -2.069  0.00  0.00    +0.032 A 
ATOM     16  N   UNL     1      -2.065  -0.681   0.714  0.00  0.00    -0.281 N 
ENDROOT
BRANCH   8  17
ATOM     17  C   UNL     1       2.160  -0.083   0.296  0.00  0.00    +0.019 A 
ATOM     18  C   UNL     1       2.163   1.317   0.438  0.00  0.00    +0.011 A 
ATOM     19  C   UNL     1       3.364   2.012   0.599  0.00  0.00    +0.001 A 
ATOM     20  C   UNL     1       4.575   1.321   0.619  0.00  0.00    +0.001 A 
ATOM     21  C   UNL     1       4.590  -0.068   0.473  0.00  0.00    +0.020 A 
ATOM     22  C   UNL     1       3.393  -0.777   0.311  0.00  0.00    +0.050 A 
ATOM     23 CL   UNL     1       3.491  -2.518   0.064  0.00  0.00    -0.083 Cl
ENDBRANCH   8  17
TORSDOF 1
