REMARK  Name = 
REMARK  2 active torsions:
REMARK  status: ('A' for Active; 'I' for Inactive)
REMARK    1  A    between atoms: C_4  and  N_5
REMARK    2  A    between atoms: C_8  and  C_14
REMARK                            x       y       z     vdW  Elec       q    Type
REMARK                         _______ _______ _______ _____ _____    ______ ____
ROOT
ATOM      1  N   UNL     1       5.663  -0.614   0.761  0.00  0.00    -0.327 N 
ATOM      2  C   UNL     1       4.288  -0.290   0.569  0.00  0.00    +0.216 A 
ATOM      3  N   UNL     1       3.870   1.000   0.683  0.00  0.00    -0.198 NA
ATOM      4  C   UNL     1       2.566   1.342   0.505  0.00  0.00    +0.149 A 
ATOM      5  C   UNL     1       1.633   0.342   0.198  0.00  0.00    +0.148 A 
ATOM      6  N   UNL     1       0.315   0.616   0.018  0.00  0.00    -0.237 NA
ATOM      7  C   UNL     1      -0.586  -0.363  -0.274  0.00  0.00    +0.111 A 
ATOM      8  C   UNL     1      -0.124  -1.695  -0.417  0.00  0.00    +0.145 A 
ATOM      9  N   UNL     1      -0.991  -2.761  -0.817  0.00  0.00    -0.341 N 
ATOM     10  N   UNL     1       1.197  -1.961  -0.225  0.00  0.00    -0.209 NA
ATOM     11  C   UNL     1       2.082  -0.981   0.084  0.00  0.00    +0.187 A 
ATOM     12  N   UNL     1       3.394  -1.271   0.270  0.00  0.00    -0.193 NA
ATOM     13  H   UNL     1       5.991  -1.601   0.674  0.00  0.00    +0.145 HD
ATOM     14  H   UNL     1       6.355   0.134   0.991  0.00  0.00    +0.145 HD
ATOM     15  H   UNL     1      -1.958  -2.588  -1.167  0.00  0.00    +0.144 HD
ATOM     16  H   UNL     1      -0.626  -3.738  -0.856  0.00  0.00    +0.144 HD
ENDROOT
BRANCH   7  17
ATOM     17  C   UNL     1      -2.009   0.012  -0.410  0.00  0.00    +0.004 A 
ATOM     18  C   UNL     1      -3.002  -0.649   0.334  0.00  0.00    +0.010 A 
ATOM     19  C   UNL     1      -4.340  -0.259   0.225  0.00  0.00    +0.001 A 
ATOM     20  C   UNL     1      -4.695   0.800  -0.615  0.00  0.00    +0.000 A 
ATOM     21  C   UNL     1      -3.711   1.476  -1.341  0.00  0.00    +0.001 A 
ATOM     22  C   UNL     1      -2.371   1.090  -1.234  0.00  0.00    +0.010 A 
ENDBRANCH   7  17
BRANCH   4  23
ATOM     23  N   UNL     1       2.172   2.711   0.636  0.00  0.00    -0.341 N 
ATOM     24  H   UNL     1       1.181   3.010   0.505  0.00  0.00    +0.144 HD
ATOM     25  H   UNL     1       2.884   3.439   0.867  0.00  0.00    +0.144 HD
ENDBRANCH   4  23
TORSDOF 2
