REMARK  Name = 
REMARK  8 active torsions:
REMARK  status: ('A' for Active; 'I' for Inactive)
REMARK    1  A    between atoms: C_3  and  O_4
REMARK    2  A    between atoms: C_5  and  O_6
REMARK    3  A    between atoms: C_5  and  C_7
REMARK    4  A    between atoms: C_7  and  C_9
REMARK    5  A    between atoms: C_9  and  O_10
REMARK    6  A    between atoms: C_11  and  C_12
REMARK    7  A    between atoms: C_14  and  O_15
REMARK    8  A    between atoms: C_27  and  C_28
REMARK                            x       y       z     vdW  Elec       q    Type
REMARK                         _______ _______ _______ _____ _____    ______ ____
ROOT
ATOM      1  C   UNL     1       0.932   0.618   0.410  0.00  0.00    +0.007 C 
ATOM      2  C   UNL     1       1.968   1.717   0.216  0.00  0.00    +0.039 C 
ATOM      3  C   UNL     1       3.305   0.963   0.036  0.00  0.00    +0.154 C 
ATOM      4  C   UNL     1       2.954  -0.569  -0.024  0.00  0.00    +0.157 C 
ATOM      5  C   UNL     1       1.446  -0.553  -0.439  0.00  0.00    +0.012 C 
ATOM      6  C   UNL     1       1.329  -0.294  -1.982  0.00  0.00    +0.015 C 
ATOM      7  C   UNL     1       0.630  -1.816  -0.047  0.00  0.00    +0.044 C 
ATOM      8  C   UNL     1      -0.906  -1.611  -0.193  0.00  0.00    +0.154 C 
ATOM      9  C   UNL     1      -1.424  -0.321   0.546  0.00  0.00    +0.153 C 
ATOM     10  F   UNL     1      -1.220  -0.566   1.901  0.00  0.00    -0.238 F 
ATOM     11  C   UNL     1      -0.562   0.945   0.174  0.00  0.00    +0.034 C 
ATOM     12  C   UNL     1      -0.985   2.165   1.022  0.00  0.00    +0.011 C 
ATOM     13  C   UNL     1      -2.471   2.476   0.860  0.00  0.00    +0.032 C 
ATOM     14  C   UNL     1      -3.289   1.248   1.169  0.00  0.00    -0.053 C 
ATOM     15  C   UNL     1      -4.262   1.318   2.091  0.00  0.00    +0.051 C 
ATOM     16  C   UNL     1      -5.038   0.134   2.456  0.00  0.00    +0.179 C 
ATOM     17  O   UNL     1      -5.961   0.218   3.308  0.00  0.00    -0.288 OA
ATOM     18  C   UNL     1      -4.725  -1.151   1.838  0.00  0.00    +0.047 C 
ATOM     19  C   UNL     1      -3.768  -1.244   0.914  0.00  0.00    -0.009 C 
ATOM     20  C   UNL     1      -2.977  -0.042   0.390  0.00  0.00    +0.044 C 
ATOM     21  C   UNL     1      -3.439   0.181  -1.073  0.00  0.00    +0.023 C 
ENDROOT
BRANCH   3  22
ATOM     22  O   UNL     1       4.166   1.262   1.106  0.00  0.00    -0.388 OA
ATOM     23  H   UNL     1       5.076   0.983   0.826  0.00  0.00    +0.210 HD
ENDBRANCH   3  22
BRANCH   4  24
ATOM     24  O   UNL     1       3.068  -1.124   1.271  0.00  0.00    -0.378 OA
ATOM     25  H   UNL     1       4.034  -1.210   1.490  0.00  0.00    +0.211 HD
ENDBRANCH   4  24
BRANCH   4  26
ATOM     26  C   UNL     1       3.813  -1.406  -0.983  0.00  0.00    +0.193 C 
ATOM     27  O   UNL     1       3.597  -2.608  -1.053  0.00  0.00    -0.292 OA
BRANCH  26  28
ATOM     28  C   UNL     1       4.916  -0.816  -1.831  0.00  0.00    +0.233 C 
BRANCH  28  29
ATOM     29  O   UNL     1       5.634  -1.819  -2.500  0.00  0.00    -0.387 OA
ATOM     30  H   UNL     1       5.084  -2.091  -3.280  0.00  0.00    +0.210 HD
ENDBRANCH  28  29
ENDBRANCH  26  28
ENDBRANCH   4  26
BRANCH   8  31
ATOM     31  O   UNL     1      -1.264  -1.608  -1.549  0.00  0.00    -0.389 OA
ATOM     32  H   UNL     1      -1.193  -2.544  -1.873  0.00  0.00    +0.210 HD
ENDBRANCH   8  31
TORSDOF 6
