REMARK  Name = 
REMARK  3 active torsions:
REMARK  status: ('A' for Active; 'I' for Inactive)
REMARK    1  A    between atoms: N_1  and  S_2
REMARK    2  A    between atoms: S_2  and  C_5
REMARK    3  A    between atoms: C_11  and  C_18
REMARK                            x       y       z     vdW  Elec       q    Type
REMARK                         _______ _______ _______ _____ _____    ______ ____
ROOT
ATOM      1  C   UNL     1       2.184   0.243   0.079  0.00  0.00    +0.125 A 
ATOM      2  C   UNL     1       2.012  -1.157   0.055  0.00  0.00    +0.069 A 
ATOM      3 CL   UNL     1       3.349  -2.261  -0.246  0.00  0.00    -0.081 Cl
ATOM      4  C   UNL     1       0.742  -1.706   0.266  0.00  0.00    +0.047 A 
ATOM      5  C   UNL     1      -0.368  -0.881   0.491  0.00  0.00    +0.057 A 
ATOM      6  N   UNL     1      -1.665  -1.468   0.687  0.00  0.00    -0.324 N 
ATOM      7  C   UNL     1      -2.940  -0.747   0.550  0.00  0.00    +0.192 C 
ATOM      8  N   UNL     1      -2.940   0.552   1.249  0.00  0.00    -0.167 NA
ATOM      9  S   UNL     1      -1.564   1.536   0.860  0.00  0.00    +0.062 S 
ATOM     10  O   UNL     1      -1.877   2.396  -0.332  0.00  0.00    -0.153 OA
ATOM     11  O   UNL     1      -1.244   2.415   2.036  0.00  0.00    -0.153 OA
ATOM     12  C   UNL     1      -0.194   0.506   0.522  0.00  0.00    +0.128 A 
ATOM     13  C   UNL     1       1.071   1.065   0.311  0.00  0.00    +0.060 A 
ATOM     14  H   UNL     1      -1.719  -2.498   0.858  0.00  0.00    +0.148 HD
ATOM     15  H   UNL     1      -2.890   0.359   2.276  0.00  0.00    +0.150 HD
ENDROOT
BRANCH   1  16
ATOM     16  S   UNL     1       3.766   0.989  -0.195  0.00  0.00    +0.057 S 
ATOM     17  O   UNL     1       4.809   0.300   0.640  0.00  0.00    -0.153 OA
ATOM     18  O   UNL     1       3.726   2.439   0.199  0.00  0.00    -0.153 OA
BRANCH  16  19
ATOM     19  N   UNL     1       4.187   0.875  -1.868  0.00  0.00    -0.203 NA
ATOM     20  H   UNL     1       3.393   1.283  -2.410  0.00  0.00    +0.144 HD
ATOM     21  H   UNL     1       4.227  -0.140  -2.111  0.00  0.00    +0.144 HD
ENDBRANCH  16  19
ENDBRANCH   1  16
BRANCH   7  22
ATOM     22  C   UNL     1      -3.412  -0.664  -0.922  0.00  0.00    +0.207 C 
ATOM     23 CL   UNL     1      -4.867   0.358  -1.075  0.00  0.00    -0.101 Cl
ATOM     24 CL   UNL     1      -2.175  -0.098  -2.080  0.00  0.00    -0.101 Cl
ENDBRANCH   7  22
TORSDOF 3
