REMARK  Name = 
REMARK  12 active torsions:
REMARK  status: ('A' for Active; 'I' for Inactive)
REMARK    1  A    between atoms: C_1  and  C_2
REMARK    2  A    between atoms: C_2  and  N_3
REMARK    3  A    between atoms: N_3  and  C_4
REMARK    4  A    between atoms: N_3  and  C_6
REMARK    5  A    between atoms: N_3  and  C_8
REMARK    6  A    between atoms: C_4  and  C_5
REMARK    7  A    between atoms: C_6  and  C_7
REMARK    8  A    between atoms: C_8  and  C_9
REMARK    9  A    between atoms: C_9  and  C_10
REMARK   10  A    between atoms: C_10  and  O_11
REMARK   11  A    between atoms: C_10  and  C_12
REMARK   12  A    between atoms: C_10  and  C_18
REMARK                            x       y       z     vdW  Elec       q    Type
REMARK                         _______ _______ _______ _____ _____    ______ ____
ROOT
ATOM      1  C   UNL     1      -1.155   0.141   0.910  0.00  0.00    +0.092 C 
ENDROOT
BRANCH   1   2
ATOM      2  C   UNL     1      -2.295  -0.909   0.642  0.00  0.00    +0.025 C 
ATOM      3  C   UNL     1      -3.689  -0.423   1.106  0.00  0.00    +0.007 C 
ATOM      4  C   UNL     1      -4.724  -1.567   1.092  0.00  0.00    +0.000 C 
ATOM      5  C   UNL     1      -4.459  -2.621  -0.001  0.00  0.00    +0.000 C 
ATOM      6  C   UNL     1      -3.743  -2.014  -1.209  0.00  0.00    +0.000 C 
ATOM      7  C   UNL     1      -2.367  -1.430  -0.825  0.00  0.00    +0.007 C 
ENDBRANCH   1   2
BRANCH   1   8
ATOM      8  C   UNL     1      -1.444   1.467   0.164  0.00  0.00    -0.016 A 
ATOM      9  C   UNL     1      -0.974   1.716  -1.147  0.00  0.00    +0.006 A 
ATOM     10  C   UNL     1      -1.268   2.917  -1.798  0.00  0.00    +0.000 A 
ATOM     11  C   UNL     1      -2.041   3.889  -1.165  0.00  0.00    +0.000 A 
ATOM     12  C   UNL     1      -2.527   3.660   0.122  0.00  0.00    +0.000 A 
ATOM     13  C   UNL     1      -2.237   2.462   0.780  0.00  0.00    +0.006 A 
ENDBRANCH   1   8
BRANCH   1  14
ATOM     14  O   UNL     1      -1.141   0.366   2.306  0.00  0.00    -0.384 OA
ATOM     15  H   UNL     1      -0.561   1.149   2.500  0.00  0.00    +0.211 HD
ENDBRANCH   1  14
BRANCH   1  16
ATOM     16  C   UNL     1       0.228  -0.490   0.528  0.00  0.00    +0.022 C 
BRANCH  16  17
ATOM     17  C   UNL     1       1.448   0.410   0.869  0.00  0.00    -0.072 C 
BRANCH  17  18
ATOM     18  N   UNL     1       2.779   0.070   0.235  0.00  0.00    +0.380 N 
BRANCH  18  20
ATOM     19  C   UNL     1       3.964   0.162  -2.048  0.00  0.00    -0.016 C 
ATOM     20  C   UNL     1       2.652   0.244  -1.255  0.00  0.00    -0.079 C 
ENDBRANCH  18  20
BRANCH  18  21
ATOM     21  C   UNL     1       3.208  -1.320   0.645  0.00  0.00    -0.079 C 
ATOM     22  C   UNL     1       2.686  -2.503  -0.201  0.00  0.00    -0.016 C 
ENDBRANCH  18  21
BRANCH  18  23
ATOM     23  C   UNL     1       3.723   1.127   0.787  0.00  0.00    -0.079 C 
ATOM     24  C   UNL     1       5.230   0.798   0.874  0.00  0.00    -0.016 C 
ENDBRANCH  18  23
ENDBRANCH  17  18
ENDBRANCH  16  17
ENDBRANCH   1  16
TORSDOF 9
