REMARK  Name = 
REMARK  5 active torsions:
REMARK  status: ('A' for Active; 'I' for Inactive)
REMARK    1  A    between atoms: O5*_1  and  C5*_2
REMARK    2  A    between atoms: C5*_2  and  C4*_3
REMARK    3  A    between atoms: C1*_5  and  N_9
REMARK    4  A    between atoms: C3*_7  and  O3*_8
REMARK    5  A    between atoms: C_11  and  C_17
REMARK                            x       y       z     vdW  Elec       q    Type
REMARK                         _______ _______ _______ _____ _____    ______ ____
ROOT
ATOM      1  N   UNL     1       0.876  -0.011   0.177  0.00  0.00    -0.273 N 
ATOM      2  C   UNL     1       2.103   0.534   0.437  0.00  0.00    +0.111 A 
ATOM      3  C   UNL     1       3.280  -0.197   0.217  0.00  0.00    +0.135 A 
ATOM      4  C   UNL     1       3.154  -1.497  -0.291  0.00  0.00    +0.266 A 
ATOM      5  O   UNL     1       4.178  -2.200  -0.511  0.00  0.00    -0.267 OA
ATOM      6  N   UNL     1       1.924  -2.007  -0.554  0.00  0.00    -0.274 N 
ATOM      7  C   UNL     1       0.794  -1.283  -0.333  0.00  0.00    +0.331 A 
ATOM      8  O   UNL     1      -0.325  -1.794  -0.611  0.00  0.00    -0.246 OA
ATOM      9  H   UNL     1       1.843  -2.977  -0.939  0.00  0.00    +0.173 HD
ENDROOT
BRANCH   1  12
ATOM     10  C4* UNL     1      -2.550   0.491   0.656  0.00  0.00    +0.175 C 
ATOM     11  O4* UNL     1      -1.297   0.066   1.131  0.00  0.00    -0.348 OA
ATOM     12  C1* UNL     1      -0.333   0.806   0.414  0.00  0.00    +0.226 C 
ATOM     13  C2* UNL     1      -0.947   1.288  -0.904  0.00  0.00    +0.088 C 
ATOM     14  C3* UNL     1      -2.390   0.849  -0.817  0.00  0.00    +0.150 C 
BRANCH  14  15
ATOM     15  O3* UNL     1      -3.267   1.886  -1.173  0.00  0.00    -0.389 OA
ATOM     16  H3* UNL     1      -3.224   1.962  -2.162  0.00  0.00    +0.210 HD
ENDBRANCH  14  15
BRANCH  10  17
ATOM     17  C5* UNL     1      -3.606  -0.594   0.890  0.00  0.00    +0.190 C 
BRANCH  17  18
ATOM     18  O5* UNL     1      -3.204  -1.806   0.312  0.00  0.00    -0.392 OA
ATOM     19  H5* UNL     1      -3.932  -2.454   0.497  0.00  0.00    +0.210 HD
ENDBRANCH  17  18
ENDBRANCH  10  17
ENDBRANCH   1  12
BRANCH   3  20
ATOM     20  C   UNL     1       4.643   0.393   0.504  0.00  0.00    +0.424 C 
ATOM     21  F   UNL     1       5.378   0.447  -0.666  0.00  0.00    -0.166 F 
ATOM     22  F   UNL     1       5.308  -0.404   1.419  0.00  0.00    -0.166 F 
ATOM     23  F   UNL     1       4.551   1.673   1.025  0.00  0.00    -0.166 F 
ENDBRANCH   3  20
TORSDOF 5
