REMARK  Name = 
REMARK  7 active torsions:
REMARK  status: ('A' for Active; 'I' for Inactive)
REMARK    1  A    between atoms: C_1  and  N_2
REMARK    2  A    between atoms: N_2  and  C_3
REMARK    3  A    between atoms: N_2  and  C_4
REMARK    4  A    between atoms: C_4  and  C_5
REMARK    5  A    between atoms: C_5  and  C_6
REMARK    6  A    between atoms: C_6  and  N_7
REMARK    7  A    between atoms: C_18  and  C_21
REMARK                            x       y       z     vdW  Elec       q    Type
REMARK                         _______ _______ _______ _____ _____    ______ ____
ROOT
ATOM      1  N   UNL     1      -0.541  -0.124   0.605  0.00  0.00    -0.298 N 
ATOM      2  C   UNL     1      -0.795  -1.526   0.831  0.00  0.00    +0.048 A 
ATOM      3  C   UNL     1      -0.123  -2.226   1.845  0.00  0.00    +0.024 A 
ATOM      4  C   UNL     1      -0.489  -3.541   2.152  0.00  0.00    +0.002 A 
ATOM      5  C   UNL     1      -1.538  -4.157   1.464  0.00  0.00    +0.001 A 
ATOM      6  C   UNL     1      -2.216  -3.466   0.455  0.00  0.00    +0.017 A 
ATOM      7  C   UNL     1      -1.837  -2.160   0.128  0.00  0.00    +0.034 A 
ATOM      8  S   UNL     1      -2.610  -1.313  -1.254  0.00  0.00    -0.086 S 
ATOM      9  C   UNL     1      -2.772   0.238  -0.362  0.00  0.00    +0.034 A 
ATOM     10  C   UNL     1      -1.678   0.732   0.368  0.00  0.00    +0.048 A 
ATOM     11  C   UNL     1      -1.773   1.988   0.989  0.00  0.00    +0.037 A 
ATOM     12  C   UNL     1      -2.956   2.744   0.896  0.00  0.00    +0.057 A 
ATOM     13  C   UNL     1      -4.037   2.236   0.153  0.00  0.00    +0.013 A 
ATOM     14  C   UNL     1      -3.949   0.984  -0.459  0.00  0.00    +0.017 A 
ENDROOT
BRANCH  12  15
ATOM     15  C   UNL     1      -3.041   4.115   1.521  0.00  0.00    +0.417 C 
ATOM     16  F   UNL     1      -2.624   5.059   0.601  0.00  0.00    -0.166 F 
ATOM     17  F   UNL     1      -4.341   4.398   1.900  0.00  0.00    -0.166 F 
ATOM     18  F   UNL     1      -2.237   4.193   2.644  0.00  0.00    -0.166 F 
ENDBRANCH  12  15
BRANCH   1  19
ATOM     19  C   UNL     1       0.823   0.353   0.343  0.00  0.00    +0.112 C 
BRANCH  19  20
ATOM     20  C   UNL     1       1.209   0.058  -1.111  0.00  0.00    +0.035 C 
BRANCH  20  21
ATOM     21  C   UNL     1       2.619   0.565  -1.452  0.00  0.00    +0.085 C 
BRANCH  21  23
ATOM     22  C   UNL     1       4.864   0.808  -0.589  0.00  0.00    +0.104 C 
ATOM     23  N   UNL     1       3.646  -0.016  -0.557  0.00  0.00    -0.308 NA
ATOM     24  C   UNL     1       3.978  -1.397  -0.953  0.00  0.00    +0.104 C 
ENDBRANCH  21  23
ENDBRANCH  20  21
ENDBRANCH  19  20
ENDBRANCH   1  19
TORSDOF 5
