REMARK  Name = 
REMARK  6 active torsions:
REMARK  status: ('A' for Active; 'I' for Inactive)
REMARK    1  A    between atoms: C_1  and  N_2
REMARK    2  A    between atoms: N_5  and  C_6
REMARK    3  A    between atoms: C_6  and  C_7
REMARK    4  A    between atoms: C_7  and  C_8
REMARK    5  A    between atoms: C_8  and  N_9
REMARK    6  A    between atoms: C_20  and  C_23
REMARK                            x       y       z     vdW  Elec       q    Type
REMARK                         _______ _______ _______ _____ _____    ______ ____
ROOT
ATOM      1  N   UNL     1      -1.617   0.003   1.149  0.00  0.00    -0.298 N 
ATOM      2  C   UNL     1      -1.628   1.444   1.038  0.00  0.00    +0.048 A 
ATOM      3  C   UNL     1      -1.579   2.263   2.180  0.00  0.00    +0.024 A 
ATOM      4  C   UNL     1      -1.739   3.647   2.059  0.00  0.00    +0.002 A 
ATOM      5  C   UNL     1      -1.955   4.224   0.804  0.00  0.00    +0.001 A 
ATOM      6  C   UNL     1      -1.995   3.420  -0.337  0.00  0.00    +0.017 A 
ATOM      7  C   UNL     1      -1.819   2.036  -0.225  0.00  0.00    +0.034 A 
ATOM      8  S   UNL     1      -1.728   1.017  -1.701  0.00  0.00    -0.086 S 
ATOM      9  C   UNL     1      -2.762  -0.279  -1.010  0.00  0.00    +0.034 A 
ATOM     10  C   UNL     1      -2.515  -0.739   0.296  0.00  0.00    +0.048 A 
ATOM     11  C   UNL     1      -3.276  -1.806   0.804  0.00  0.00    +0.037 A 
ATOM     12  C   UNL     1      -4.253  -2.433   0.009  0.00  0.00    +0.057 A 
ATOM     13  C   UNL     1      -4.509  -1.934  -1.280  0.00  0.00    +0.013 A 
ATOM     14  C   UNL     1      -3.766  -0.863  -1.785  0.00  0.00    +0.017 A 
ENDROOT
BRANCH  12  15
ATOM     15  C   UNL     1      -5.105  -3.539   0.580  0.00  0.00    +0.417 C 
ATOM     16  F   UNL     1      -5.543  -4.388  -0.423  0.00  0.00    -0.166 F 
ATOM     17  F   UNL     1      -6.203  -2.986   1.214  0.00  0.00    -0.166 F 
ATOM     18  F   UNL     1      -4.385  -4.287   1.494  0.00  0.00    -0.166 F 
ENDBRANCH  12  15
BRANCH   1  19
ATOM     19  C   UNL     1      -0.677  -0.688   2.048  0.00  0.00    +0.112 C 
BRANCH  19  20
ATOM     20  C   UNL     1       0.777  -0.386   1.662  0.00  0.00    +0.035 C 
BRANCH  20  21
ATOM     21  C   UNL     1       1.141  -0.994   0.299  0.00  0.00    +0.086 C 
BRANCH  21  26
ATOM     22  C   UNL     1       6.062   0.786  -1.643  0.00  0.00    +0.105 C 
ATOM     23  N   UNL     1       4.803   0.307  -1.054  0.00  0.00    -0.303 NA
ATOM     24  C   UNL     1       3.745   1.330  -1.200  0.00  0.00    +0.099 C 
ATOM     25  C   UNL     1       2.347   0.755  -0.896  0.00  0.00    +0.100 C 
ATOM     26  N   UNL     1       2.466  -0.510  -0.143  0.00  0.00    -0.300 NA
ATOM     27  C   UNL     1       3.147  -1.530  -0.971  0.00  0.00    +0.100 C 
ATOM     28  C   UNL     1       4.388  -0.958  -1.686  0.00  0.00    +0.099 C 
ENDBRANCH  21  26
ENDBRANCH  20  21
ENDBRANCH  19  20
ENDBRANCH   1  19
TORSDOF 5
