REMARK  Name = 
REMARK  6 active torsions:
REMARK  status: ('A' for Active; 'I' for Inactive)
REMARK    1  A    between atoms: O_1  and  C_2
REMARK    2  A    between atoms: C_2  and  C_3
REMARK    3  A    between atoms: C_2  and  C_11
REMARK    4  A    between atoms: C_2  and  C_17
REMARK    5  A    between atoms: C_3  and  C_4
REMARK    6  A    between atoms: C_4  and  N_5
REMARK                            x       y       z     vdW  Elec       q    Type
REMARK                         _______ _______ _______ _____ _____    ______ ____
ROOT
ATOM      1  C   UNL     1      -1.026   0.113   0.577  0.00  0.00    +0.095 C 
ENDROOT
BRANCH   1   2
ATOM      2  C   UNL     1      -1.996   1.091  -0.196  0.00  0.00    +0.025 C 
ATOM      3  C   UNL     1      -3.498   0.800   0.056  0.00  0.00    +0.007 C 
ATOM      4  C   UNL     1      -4.398   1.623  -0.889  0.00  0.00    +0.000 C 
ATOM      5  C   UNL     1      -3.811   3.002  -1.248  0.00  0.00    +0.000 C 
ATOM      6  C   UNL     1      -2.891   3.530  -0.145  0.00  0.00    +0.000 C 
ATOM      7  C   UNL     1      -1.689   2.592   0.091  0.00  0.00    +0.007 C 
ENDBRANCH   1   2
BRANCH   1   8
ATOM      8  C   UNL     1      -1.384  -1.360   0.299  0.00  0.00    -0.016 A 
ATOM      9  C   UNL     1      -1.468  -1.835  -1.029  0.00  0.00    +0.006 A 
ATOM     10  C   UNL     1      -1.765  -3.175  -1.292  0.00  0.00    +0.000 A 
ATOM     11  C   UNL     1      -1.966  -4.068  -0.239  0.00  0.00    +0.000 A 
ATOM     12  C   UNL     1      -1.862  -3.625   1.079  0.00  0.00    +0.000 A 
ATOM     13  C   UNL     1      -1.566  -2.286   1.350  0.00  0.00    +0.006 A 
ENDBRANCH   1   8
BRANCH   1  14
ATOM     14  O   UNL     1      -1.077   0.393   1.960  0.00  0.00    -0.384 OA
ATOM     15  H   UNL     1      -2.009   0.273   2.274  0.00  0.00    +0.211 HD
ENDBRANCH   1  14
BRANCH   1  16
ATOM     16  C   UNL     1       0.439   0.362   0.112  0.00  0.00    +0.055 C 
BRANCH  16  17
ATOM     17  C   UNL     1       1.466  -0.574   0.779  0.00  0.00    +0.087 C 
BRANCH  17  18
ATOM     18  N   UNL     1       2.840  -0.178   0.401  0.00  0.00    -0.302 NA
ATOM     19  C   UNL     1       3.798  -0.519   1.479  0.00  0.00    +0.084 C 
ATOM     20  C   UNL     1       5.272  -0.395   1.029  0.00  0.00    +0.015 C 
ATOM     21  C   UNL     1       5.402   0.433  -0.252  0.00  0.00    +0.002 C 
ATOM     22  C   UNL     1       4.556  -0.169  -1.386  0.00  0.00    +0.015 C 
ATOM     23  C   UNL     1       3.253  -0.807  -0.871  0.00  0.00    +0.084 C 
ENDBRANCH  17  18
ENDBRANCH  16  17
ENDBRANCH   1  16
TORSDOF 6
