REMARK  Name = 
REMARK  5 active torsions:
REMARK  status: ('A' for Active; 'I' for Inactive)
REMARK    1  A    between atoms: C_10  and  O_11
REMARK    2  A    between atoms: C_12  and  C_13
REMARK    3  A    between atoms: C_17  and  C_18
REMARK    4  A    between atoms: C_20  and  C_21
REMARK    5  A    between atoms: C_23  and  O_24
REMARK                            x       y       z     vdW  Elec       q    Type
REMARK                         _______ _______ _______ _____ _____    ______ ____
ROOT
ATOM      1  C   UNL     1       3.652  -0.733  -1.512  0.00  0.00    +0.217 C 
ATOM      2  O   UNL     1       2.873  -1.711  -0.854  0.00  0.00    -0.356 OA
ATOM      3  C   UNL     1       2.206  -0.529  -1.246  0.00  0.00    +0.109 C 
ATOM      4  C   UNL     1       1.216  -0.788  -2.384  0.00  0.00    +0.039 C 
ATOM      5  C   UNL     1      -0.117  -1.276  -1.814  0.00  0.00    +0.007 C 
ATOM      6  C   UNL     1      -0.665  -0.303  -0.747  0.00  0.00    -0.003 C 
ATOM      7  C   UNL     1      -1.993  -0.830  -0.163  0.00  0.00    +0.001 C 
ATOM      8  C   UNL     1      -3.146  -1.153  -1.107  0.00  0.00    +0.007 C 
ATOM      9  C   UNL     1      -4.386  -1.153  -0.195  0.00  0.00    +0.032 C 
ATOM     10  C   UNL     1      -3.929  -0.610   1.175  0.00  0.00    +0.121 C 
ATOM     11  C   UNL     1      -2.600   0.117   0.878  0.00  0.00    -0.003 C 
ATOM     12  C   UNL     1      -2.899   1.552   0.334  0.00  0.00    +0.014 C 
ATOM     13  C   UNL     1      -1.628   0.191   2.075  0.00  0.00    +0.010 C 
ATOM     14  C   UNL     1      -0.228   0.676   1.628  0.00  0.00    +0.005 C 
ATOM     15  C   UNL     1       0.359  -0.144   0.434  0.00  0.00    +0.002 C 
ATOM     16  C   UNL     1       1.767   0.367  -0.054  0.00  0.00    +0.008 C 
ATOM     17  C   UNL     1       1.717   1.838  -0.543  0.00  0.00    +0.015 C 
ATOM     18  C   UNL     1       2.811   0.260   1.099  0.00  0.00    +0.059 C 
ATOM     19  C   UNL     1       4.233   0.428   0.617  0.00  0.00    +0.070 C 
ATOM     20  C   UNL     1       4.628  -0.072  -0.575  0.00  0.00    +0.139 C 
ENDROOT
BRANCH  10  21
ATOM     21  O   UNL     1      -4.906   0.234   1.730  0.00  0.00    -0.391 OA
ATOM     22  H   UNL     1      -4.632   0.399   2.669  0.00  0.00    +0.210 HD
ENDBRANCH  10  21
BRANCH  19  23
ATOM     23  C   UNL     1       5.168   1.099   1.489  0.00  0.00    +0.098 C 
ATOM     24  N   UNL     1       5.915   1.637   2.190  0.00  0.00    -0.191 NA
ENDBRANCH  19  23
BRANCH  20  25
ATOM     25  O   UNL     1       5.954   0.021  -1.007  0.00  0.00    -0.507 OA
ATOM     26  H   UNL     1       6.691   0.448  -0.459  0.00  0.00    +0.292 HD
ENDBRANCH  20  25
TORSDOF 3
