REMARK  Name = 
REMARK  15 active torsions:
REMARK  status: ('A' for Active; 'I' for Inactive)
REMARK    1  A    between atoms: C_1  and  O_2
REMARK    2  A    between atoms: O_2  and  C_3
REMARK    3  A    between atoms: C_5  and  C_13
REMARK    4  A    between atoms: C_7  and  O_8
REMARK    5  A    between atoms: O_8  and  C_9
REMARK    6  A    between atoms: C_10  and  O_11
REMARK    7  A    between atoms: O_11  and  C_12
REMARK    8  A    between atoms: N_15  and  C_16
REMARK    9  A    between atoms: C_16  and  C_17
REMARK   10  A    between atoms: C_20  and  O_21
REMARK   11  A    between atoms: O_21  and  C_22
REMARK   12  A    between atoms: C_22  and  C_23
REMARK   13  A    between atoms: C_23  and  N_24
REMARK   14  A    between atoms: N_24  and  C_25
REMARK   15  A    between atoms: N_24  and  C_26
REMARK                            x       y       z     vdW  Elec       q    Type
REMARK                         _______ _______ _______ _____ _____    ______ ____
ROOT
ATOM      1  C   UNL     1      -2.124   1.985  -0.160  0.00  0.00    +0.245 C 
ATOM      2  O   UNL     1      -2.083   2.779   0.821  0.00  0.00    -0.270 OA
ATOM      3  N   UNL     1      -1.235   2.184  -1.272  0.00  0.00    -0.307 N 
ATOM      4  H   UNL     1      -1.126   1.431  -1.987  0.00  0.00    +0.149 HD
ENDROOT
BRANCH   1   7
ATOM      5  C   UNL     1      -4.430  -0.833  -1.292  0.00  0.00    +0.166 A 
ATOM      6  C   UNL     1      -3.532   0.252  -1.318  0.00  0.00    +0.062 A 
ATOM      7  C   UNL     1      -3.078   0.847  -0.132  0.00  0.00    +0.044 A 
ATOM      8  C   UNL     1      -3.554   0.366   1.095  0.00  0.00    +0.062 A 
ATOM      9  C   UNL     1      -4.456  -0.711   1.145  0.00  0.00    +0.166 A 
ATOM     10  C   UNL     1      -4.892  -1.319  -0.042  0.00  0.00    +0.204 A 
BRANCH   5  12
ATOM     11  C   UNL     1      -4.465  -1.047  -3.793  0.00  0.00    +0.277 C 
ATOM     12  O   UNL     1      -4.870  -1.432  -2.483  0.00  0.00    -0.491 OA
ENDBRANCH   5  12
BRANCH   9  13
ATOM     13  O   UNL     1      -4.944  -1.212   2.364  0.00  0.00    -0.491 OA
ATOM     14  C   UNL     1      -4.612  -0.690   3.647  0.00  0.00    +0.277 C 
ENDBRANCH   9  13
BRANCH  10  15
ATOM     15  O   UNL     1      -5.787  -2.399   0.094  0.00  0.00    -0.488 OA
ATOM     16  C   UNL     1      -6.351  -3.174  -0.958  0.00  0.00    +0.277 C 
ENDBRANCH  10  15
ENDBRANCH   1   7
BRANCH   3  17
ATOM     17  C   UNL     1      -0.283   3.291  -1.322  0.00  0.00    +0.139 C 
BRANCH  17  18
ATOM     18  C   UNL     1       1.004   2.887  -0.657  0.00  0.00    -0.030 A 
ATOM     19  C   UNL     1       1.940   2.110  -1.353  0.00  0.00    +0.009 A 
ATOM     20  C   UNL     1       3.117   1.691  -0.727  0.00  0.00    +0.046 A 
ATOM     21  C   UNL     1       3.369   2.034   0.616  0.00  0.00    +0.121 A 
ATOM     22  C   UNL     1       2.428   2.805   1.307  0.00  0.00    +0.046 A 
ATOM     23  C   UNL     1       1.252   3.226   0.681  0.00  0.00    +0.009 A 
BRANCH  21  24
ATOM     24  O   UNL     1       4.530   1.636   1.298  0.00  0.00    -0.491 OA
BRANCH  24  25
ATOM     25  C   UNL     1       5.553   0.788   0.774  0.00  0.00    +0.244 C 
BRANCH  25  26
ATOM     26  C   UNL     1       5.101  -0.677   0.786  0.00  0.00    +0.124 C 
BRANCH  26  27
ATOM     27  N   UNL     1       6.078  -1.526   0.069  0.00  0.00    -0.305 NA
ATOM     28  C   UNL     1       7.186  -1.924   0.956  0.00  0.00    +0.104 C 
ATOM     29  C   UNL     1       5.419  -2.732  -0.461  0.00  0.00    +0.104 C 
ENDBRANCH  26  27
ENDBRANCH  25  26
ENDBRANCH  24  25
ENDBRANCH  21  24
ENDBRANCH  17  18
ENDBRANCH   3  17
TORSDOF 10
