REMARK  Name = 
REMARK  10 active torsions:
REMARK  status: ('A' for Active; 'I' for Inactive)
REMARK    1  A    between atoms: C_1  and  O_2
REMARK    2  A    between atoms: O_2  and  C_3
REMARK    3  A    between atoms: C_5  and  N_6
REMARK    4  A    between atoms: N_6  and  C_7
REMARK    5  A    between atoms: C_7  and  C_8
REMARK    6  A    between atoms: C_9  and  C_10
REMARK    7  A    between atoms: C_22  and  O_23
REMARK    8  A    between atoms: O_23  and  C_24
REMARK    9  A    between atoms: C_25  and  O_26
REMARK   10  A    between atoms: O_26  and  C_27
REMARK                            x       y       z     vdW  Elec       q    Type
REMARK                         _______ _______ _______ _____ _____    ______ ____
ROOT
ATOM      1  C   UNL     1       2.014   0.382   1.192  0.00  0.00    -0.027 A 
ATOM      2  C   UNL     1       2.656   0.309  -0.079  0.00  0.00    -0.033 A 
ATOM      3  C   UNL     1       1.939   0.850  -1.300  0.00  0.00    +0.045 C 
ATOM      4  C   UNL     1       3.997  -0.191  -0.151  0.00  0.00    +0.043 A 
ATOM      5  C   UNL     1       4.727  -0.346   1.056  0.00  0.00    +0.078 A 
ATOM      6  C   UNL     1       4.101  -0.188   2.289  0.00  0.00    +0.029 A 
ATOM      7  C   UNL     1       2.751   0.127   2.357  0.00  0.00    +0.007 A 
ATOM      8  N   UNL     1       6.049  -0.649   1.028  0.00  0.00    -0.215 NA
ATOM      9  C   UNL     1       6.701  -0.845  -0.141  0.00  0.00    +0.215 A 
ATOM     10  N   UNL     1       8.095  -1.142  -0.142  0.00  0.00    -0.327 N 
ATOM     11  N   UNL     1       6.014  -0.810  -1.308  0.00  0.00    -0.199 NA
ATOM     12  C   UNL     1       4.685  -0.527  -1.353  0.00  0.00    +0.129 A 
ATOM     13  N   UNL     1       4.014  -0.733  -2.599  0.00  0.00    -0.343 N 
ATOM     14  H   UNL     1       8.626  -1.190   0.756  0.00  0.00    +0.145 HD
ATOM     15  H   UNL     1       8.599  -1.314  -1.040  0.00  0.00    +0.145 HD
ATOM     16  H   UNL     1       4.569  -0.778  -3.482  0.00  0.00    +0.144 HD
ATOM     17  H   UNL     1       3.042  -1.109  -2.629  0.00  0.00    +0.144 HD
ENDROOT
BRANCH   1  18
ATOM     18  C   UNL     1       0.549   0.750   1.343  0.00  0.00    +0.137 C 
BRANCH  18  19
ATOM     19  N   UNL     1      -0.309  -0.196   0.625  0.00  0.00    -0.340 N 
ATOM     20  H   UNL     1       0.123  -1.065   0.234  0.00  0.00    +0.146 HD
BRANCH  19  23
ATOM     21  C   UNL     1      -3.808  -0.726  -0.622  0.00  0.00    +0.167 A 
ATOM     22  C   UNL     1      -2.428  -0.882  -0.394  0.00  0.00    +0.072 A 
ATOM     23  C   UNL     1      -1.722   0.004   0.427  0.00  0.00    +0.035 A 
ATOM     24  C   UNL     1      -2.410   1.062   1.040  0.00  0.00    +0.072 A 
ATOM     25  C   UNL     1      -3.789   1.238   0.828  0.00  0.00    +0.167 A 
ATOM     26  C   UNL     1      -4.494   0.351  -0.002  0.00  0.00    +0.204 A 
BRANCH  21  28
ATOM     27  C   UNL     1      -3.929  -2.733  -2.123  0.00  0.00    +0.277 C 
ATOM     28  O   UNL     1      -4.507  -1.619  -1.450  0.00  0.00    -0.491 OA
ENDBRANCH  21  28
BRANCH  25  29
ATOM     29  O   UNL     1      -4.502   2.290   1.427  0.00  0.00    -0.491 OA
ATOM     30  C   UNL     1      -3.932   3.268   2.291  0.00  0.00    +0.277 C 
ENDBRANCH  25  29
BRANCH  26  31
ATOM     31  O   UNL     1      -5.871   0.598  -0.165  0.00  0.00    -0.488 OA
ATOM     32  C   UNL     1      -6.781  -0.155  -0.959  0.00  0.00    +0.277 C 
ENDBRANCH  26  31
ENDBRANCH  19  23
ENDBRANCH  18  19
ENDBRANCH   1  18
TORSDOF 6
