REMARK  Name = 
REMARK  8 active torsions:
REMARK  status: ('A' for Active; 'I' for Inactive)
REMARK    1  A    between atoms: C_1  and  O_2
REMARK    2  A    between atoms: O_2  and  C_3
REMARK    3  A    between atoms: C_5  and  C_6
REMARK    4  A    between atoms: C_6  and  C_7
REMARK    5  A    between atoms: C_16  and  O_17
REMARK    6  A    between atoms: O_17  and  C_18
REMARK    7  A    between atoms: C_19  and  O_20
REMARK    8  A    between atoms: O_20  and  C_21
REMARK                            x       y       z     vdW  Elec       q    Type
REMARK                         _______ _______ _______ _____ _____    ______ ____
ROOT
ATOM      1  C   UNL     1       1.534  -1.532   0.409  0.00  0.00    +0.075 C 
ENDROOT
BRANCH   1   2
ATOM      2  C   UNL     1       2.507  -0.381   0.535  0.00  0.00    +0.015 A 
ATOM      3  C   UNL     1       2.979  -0.016   1.805  0.00  0.00    +0.121 A 
ATOM      4  N   UNL     1       3.828   1.033   1.947  0.00  0.00    -0.223 NA
ATOM      5  C   UNL     1       4.236   1.752   0.872  0.00  0.00    +0.214 A 
ATOM      6  N   UNL     1       5.128   2.851   1.044  0.00  0.00    -0.327 N 
ATOM      7  N   UNL     1       3.791   1.427  -0.369  0.00  0.00    -0.200 NA
ATOM      8  C   UNL     1       2.940   0.386  -0.571  0.00  0.00    +0.125 A 
ATOM      9  N   UNL     1       2.512   0.103  -1.907  0.00  0.00    -0.343 N 
ATOM     10  H   UNL     1       5.473   3.107   1.996  0.00  0.00    +0.145 HD
ATOM     11  H   UNL     1       5.445   3.409   0.221  0.00  0.00    +0.145 HD
ATOM     12  H   UNL     1       2.843   0.704  -2.694  0.00  0.00    +0.144 HD
ATOM     13  H   UNL     1       1.888  -0.697  -2.142  0.00  0.00    +0.144 HD
ENDBRANCH   1   2
BRANCH   1  16
ATOM     14  C   UNL     1      -1.805   0.180   1.115  0.00  0.00    +0.165 A 
ATOM     15  C   UNL     1      -0.488  -0.288   1.257  0.00  0.00    +0.053 A 
ATOM     16  C   UNL     1       0.118  -1.036   0.242  0.00  0.00    -0.036 A 
ATOM     17  C   UNL     1      -0.612  -1.342  -0.913  0.00  0.00    +0.053 A 
ATOM     18  C   UNL     1      -1.934  -0.883  -1.079  0.00  0.00    +0.165 A 
ATOM     19  C   UNL     1      -2.533  -0.111  -0.051  0.00  0.00    +0.204 A 
BRANCH  14  21
ATOM     20  C   UNL     1      -1.821   1.323   3.344  0.00  0.00    +0.277 C 
ATOM     21  O   UNL     1      -2.432   0.943   2.115  0.00  0.00    -0.491 OA
ENDBRANCH  14  21
BRANCH  18  22
ATOM     22  O   UNL     1      -2.657  -1.183  -2.244  0.00  0.00    -0.491 OA
ATOM     23  C   UNL     1      -2.160  -1.937  -3.346  0.00  0.00    +0.277 C 
ENDBRANCH  18  22
BRANCH  19  24
ATOM     24  O   UNL     1      -3.845   0.398  -0.119  0.00  0.00    -0.488 OA
ATOM     25  C   UNL     1      -4.763   0.237  -1.194  0.00  0.00    +0.277 C 
ENDBRANCH  19  24
ENDBRANCH   1  16
TORSDOF 5
