REMARK  Name = 
REMARK  4 active torsions:
REMARK  status: ('A' for Active; 'I' for Inactive)
REMARK    1  A    between atoms: N_3  and  C_4
REMARK    2  A    between atoms: C_4  and  C_5
REMARK    3  A    between atoms: N_19  and  C_20
REMARK    4  A    between atoms: C_20  and  C_21
REMARK                            x       y       z     vdW  Elec       q    Type
REMARK                         _______ _______ _______ _____ _____    ______ ____
ROOT
ATOM      1  O   UNL     1       0.572   2.388  -0.645  0.00  0.00    -0.252 OA
ATOM      2  C   UNL     1       0.422   1.180  -0.321  0.00  0.00    +0.306 C 
ATOM      3  N   UNL     1       1.215   0.533   0.685  0.00  0.00    -0.276 N 
ATOM      4  C   UNL     1       0.910  -0.863   0.428  0.00  0.00    +0.108 C 
ATOM      5  C   UNL     1       0.964  -1.906   1.519  0.00  0.00    +0.083 C 
ATOM      6  S   UNL     1       0.042  -3.221   0.712  0.00  0.00    -0.201 S 
ATOM      7  C   UNL     1      -1.363  -3.760   1.644  0.00  0.00    +0.059 C 
ATOM      8  C   UNL     1      -2.581  -3.061   1.037  0.00  0.00    +0.011 C 
ATOM      9  C   UNL     1      -2.273  -2.687  -0.421  0.00  0.00    +0.016 C 
ATOM     10  C   UNL     1      -0.808  -2.256  -0.528  0.00  0.00    +0.059 C 
ATOM     11  C   UNL     1      -0.533  -0.833  -0.032  0.00  0.00    +0.111 C 
ATOM     12  N   UNL     1      -0.557   0.319  -0.924  0.00  0.00    -0.275 N 
ENDROOT
BRANCH   3  13
ATOM     13  C   UNL     1       2.494   1.031   1.193  0.00  0.00    +0.144 C 
BRANCH  13  14
ATOM     14  C   UNL     1       3.587   0.838   0.175  0.00  0.00    -0.030 A 
ATOM     15  C   UNL     1       3.849   1.831  -0.784  0.00  0.00    +0.005 A 
ATOM     16  C   UNL     1       4.840   1.633  -1.751  0.00  0.00    +0.000 A 
ATOM     17  C   UNL     1       5.571   0.443  -1.771  0.00  0.00    +0.000 A 
ATOM     18  C   UNL     1       5.312  -0.552  -0.825  0.00  0.00    +0.000 A 
ATOM     19  C   UNL     1       4.323  -0.358   0.144  0.00  0.00    +0.005 A 
ENDBRANCH  13  14
ENDBRANCH   3  13
BRANCH  12  20
ATOM     20  C   UNL     1      -1.715   0.786  -1.688  0.00  0.00    +0.144 C 
BRANCH  20  21
ATOM     21  C   UNL     1      -2.585   1.695  -0.855  0.00  0.00    -0.030 A 
ATOM     22  C   UNL     1      -2.504   3.090  -1.011  0.00  0.00    +0.005 A 
ATOM     23  C   UNL     1      -3.289   3.935  -0.221  0.00  0.00    +0.000 A 
ATOM     24  C   UNL     1      -4.157   3.396   0.733  0.00  0.00    +0.000 A 
ATOM     25  C   UNL     1      -4.241   2.011   0.897  0.00  0.00    +0.000 A 
ATOM     26  C   UNL     1      -3.458   1.163   0.108  0.00  0.00    +0.005 A 
ENDBRANCH  20  21
ENDBRANCH  12  20
TORSDOF 4
