REMARK  Name = 
REMARK  7 active torsions:
REMARK  status: ('A' for Active; 'I' for Inactive)
REMARK    1  A    between atoms: C_1  and  C_2
REMARK    2  A    between atoms: C_2  and  C_3
REMARK    3  A    between atoms: C_2  and  C_7
REMARK    4  A    between atoms: C_3  and  N_4
REMARK    5  A    between atoms: N_4  and  C_5
REMARK    6  A    between atoms: N_4  and  C_6
REMARK    7  A    between atoms: C_7  and  N_8
REMARK                            x       y       z     vdW  Elec       q    Type
REMARK                         _______ _______ _______ _____ _____    ______ ____
ROOT
ATOM      1  N   UNL     1      -0.602  -0.542   0.756  0.00  0.00    -0.299 N 
ATOM      2  C   UNL     1      -1.667  -1.479   0.541  0.00  0.00    +0.037 A 
ATOM      3  C   UNL     1      -2.095  -2.326   1.577  0.00  0.00    +0.024 A 
ATOM      4  C   UNL     1      -3.146  -3.221   1.362  0.00  0.00    +0.002 A 
ATOM      5  C   UNL     1      -3.775  -3.276   0.116  0.00  0.00    +0.000 A 
ATOM      6  C   UNL     1      -3.350  -2.439  -0.920  0.00  0.00    +0.005 A 
ATOM      7  C   UNL     1      -2.287  -1.544  -0.712  0.00  0.00    -0.026 A 
ATOM      8  C   UNL     1      -1.804  -0.646  -1.809  0.00  0.00    +0.042 C 
ATOM      9  C   UNL     1      -2.202   0.807  -1.543  0.00  0.00    +0.042 C 
ATOM     10  C   UNL     1      -1.629   1.499  -0.310  0.00  0.00    -0.026 A 
ATOM     11  C   UNL     1      -1.887   2.881  -0.225  0.00  0.00    +0.005 A 
ATOM     12  C   UNL     1      -1.480   3.627   0.880  0.00  0.00    +0.000 A 
ATOM     13  C   UNL     1      -0.825   3.006   1.936  0.00  0.00    +0.002 A 
ATOM     14  C   UNL     1      -0.559   1.640   1.885  0.00  0.00    +0.024 A 
ATOM     15  C   UNL     1      -0.926   0.867   0.764  0.00  0.00    +0.037 A 
ENDROOT
BRANCH   1  16
ATOM     16  C   UNL     1       0.676  -1.057   1.289  0.00  0.00    +0.115 C 
BRANCH  16  18
ATOM     17  C   UNL     1       3.188  -0.909   1.385  0.00  0.00    +0.010 C 
ATOM     18  C   UNL     1       1.918  -0.264   0.807  0.00  0.00    +0.018 C 
BRANCH  18  19
ATOM     19  C   UNL     1       1.987  -0.194  -0.736  0.00  0.00    +0.088 C 
BRANCH  19  20
ATOM     20  N   UNL     1       3.232   0.458  -1.204  0.00  0.00    -0.308 NA
ATOM     21  C   UNL     1       3.515   0.066  -2.594  0.00  0.00    +0.104 C 
ATOM     22  C   UNL     1       3.126   1.926  -1.123  0.00  0.00    +0.104 C 
ENDBRANCH  19  20
ENDBRANCH  18  19
ENDBRANCH  16  18
ENDBRANCH   1  16
TORSDOF 4
