REMARK  Name = 
REMARK  7 active torsions:
REMARK  status: ('A' for Active; 'I' for Inactive)
REMARK    1  A    between atoms: C_1  and  C_2
REMARK    2  A    between atoms: C_2  and  C_3
REMARK    3  A    between atoms: C_2  and  C_7
REMARK    4  A    between atoms: C_3  and  N_4
REMARK    5  A    between atoms: N_4  and  C_5
REMARK    6  A    between atoms: N_4  and  C_6
REMARK    7  A    between atoms: C_7  and  N_8
REMARK                            x       y       z     vdW  Elec       q    Type
REMARK                         _______ _______ _______ _____ _____    ______ ____
ROOT
ATOM      1  N   UNL     1      -1.058  -0.432  -0.435  0.00  0.00    -0.298 N 
ATOM      2  C   UNL     1      -1.577   0.905  -0.257  0.00  0.00    +0.048 A 
ATOM      3  C   UNL     1      -1.289   1.930  -1.176  0.00  0.00    +0.024 A 
ATOM      4  C   UNL     1      -1.924   3.171  -1.068  0.00  0.00    +0.002 A 
ATOM      5  C   UNL     1      -2.862   3.395  -0.056  0.00  0.00    +0.001 A 
ATOM      6  C   UNL     1      -3.154   2.385   0.864  0.00  0.00    +0.017 A 
ATOM      7  C   UNL     1      -2.503   1.150   0.775  0.00  0.00    +0.034 A 
ATOM      8  S   UNL     1      -2.774  -0.105   2.031  0.00  0.00    -0.086 S 
ATOM      9  C   UNL     1      -2.918  -1.431   0.830  0.00  0.00    +0.034 A 
ATOM     10  C   UNL     1      -3.930  -2.387   0.956  0.00  0.00    +0.017 A 
ATOM     11  C   UNL     1      -3.990  -3.462   0.066  0.00  0.00    +0.001 A 
ATOM     12  C   UNL     1      -3.046  -3.576  -0.959  0.00  0.00    +0.002 A 
ATOM     13  C   UNL     1      -2.047  -2.609  -1.105  0.00  0.00    +0.024 A 
ATOM     14  C   UNL     1      -1.971  -1.528  -0.208  0.00  0.00    +0.048 A 
ENDROOT
BRANCH   1  15
ATOM     15  C   UNL     1       0.312  -0.674  -0.923  0.00  0.00    +0.115 C 
BRANCH  15  17
ATOM     16  C   UNL     1       1.333  -0.545   1.395  0.00  0.00    +0.010 C 
ATOM     17  C   UNL     1       1.368   0.021  -0.034  0.00  0.00    +0.018 C 
BRANCH  17  18
ATOM     18  C   UNL     1       2.772  -0.147  -0.656  0.00  0.00    +0.088 C 
BRANCH  18  19
ATOM     19  N   UNL     1       3.796   0.585   0.125  0.00  0.00    -0.308 NA
ATOM     20  C   UNL     1       5.113  -0.053  -0.033  0.00  0.00    +0.104 C 
ATOM     21  C   UNL     1       3.881   1.994  -0.299  0.00  0.00    +0.104 C 
ENDBRANCH  18  19
ENDBRANCH  17  18
ENDBRANCH  15  17
ENDBRANCH   1  15
TORSDOF 4
