REMARK  Name = 
REMARK  3 active torsions:
REMARK  status: ('A' for Active; 'I' for Inactive)
REMARK    1  A    between atoms: C_1  and  N_2
REMARK    2  A    between atoms: C_6  and  C_7
REMARK    3  A    between atoms: C_6  and  C_8
REMARK                            x       y       z     vdW  Elec       q    Type
REMARK                         _______ _______ _______ _____ _____    ______ ____
ROOT
ATOM      1  C   UNL     1       2.785   0.083   0.492  0.00  0.00    +0.144 C 
ATOM      2  N   UNL     1       1.453  -0.259   0.010  0.00  0.00    -0.207 N 
ATOM      3  C   UNL     1       1.028  -0.229  -1.342  0.00  0.00    +0.410 C 
ATOM      4  O   UNL     1       1.817  -0.270  -2.322  0.00  0.00    -0.226 OA
ATOM      5  O   UNL     1      -0.350  -0.121  -1.475  0.00  0.00    -0.434 OA
ATOM      6  C   UNL     1      -0.955  -0.032  -0.184  0.00  0.00    +0.185 C 
ATOM      7  C   UNL     1      -1.700   1.299  -0.046  0.00  0.00    +0.066 C 
ATOM      8  C   UNL     1      -1.883  -1.228   0.045  0.00  0.00    +0.066 C 
ATOM      9  C   UNL     1       0.240  -0.088   0.730  0.00  0.00    +0.268 C 
ATOM     10  O   UNL     1       0.189   0.025   1.985  0.00  0.00    -0.271 OA
ENDROOT
TORSDOF 0
