REMARK  Name = 
REMARK  3 active torsions:
REMARK  status: ('A' for Active; 'I' for Inactive)
REMARK    1  A    between atoms: C_1  and  C_2
REMARK    2  A    between atoms: C_12  and  C_13
REMARK    3  A    between atoms: C_14  and  C_15
REMARK                            x       y       z     vdW  Elec       q    Type
REMARK                         _______ _______ _______ _____ _____    ______ ____
ROOT
ATOM      1  C   UNL     1      -4.587   1.031   0.539  0.00  0.00    +0.086 C 
ATOM      2  C   UNL     1      -3.143   0.711   0.347  0.00  0.00    +0.103 A 
ATOM      3  C   UNL     1      -2.394   1.028  -0.780  0.00  0.00    +0.053 A 
ATOM      4  C   UNL     1      -1.143   0.528  -0.505  0.00  0.00    +0.021 A 
ATOM      5  C   UNL     1       0.024   0.553  -1.260  0.00  0.00    +0.023 A 
ATOM      6  C   UNL     1       1.187  -0.040  -0.710  0.00  0.00    +0.022 A 
ATOM      7  C   UNL     1       1.126  -0.644   0.587  0.00  0.00    +0.146 A 
ATOM      8  O   UNL     1       2.216  -1.196   1.114  0.00  0.00    -0.422 OA
ATOM      9  C   UNL     1       3.386  -1.222   0.490  0.00  0.00    +0.337 A 
ATOM     10  O   UNL     1       4.377  -1.762   1.049  0.00  0.00    -0.245 OA
ATOM     11  C   UNL     1       3.527  -0.657  -0.779  0.00  0.00    +0.096 A 
ATOM     12  C   UNL     1       2.422  -0.057  -1.396  0.00  0.00    -0.033 A 
ATOM     13  C   UNL     1       2.584   0.552  -2.765  0.00  0.00    +0.045 C 
ATOM     14  C   UNL     1      -0.087  -0.660   1.316  0.00  0.00    +0.035 A 
ATOM     15  C   UNL     1      -0.162  -1.265   2.690  0.00  0.00    +0.051 C 
ATOM     16  C   UNL     1      -1.200  -0.050   0.734  0.00  0.00    +0.142 A 
ATOM     17  O   UNL     1      -2.408   0.066   1.234  0.00  0.00    -0.460 OA
ENDROOT
TORSDOF 0
