REMARK  Name = 
REMARK  5 active torsions:
REMARK  status: ('A' for Active; 'I' for Inactive)
REMARK    1  A    between atoms: C_1  and  C_2
REMARK    2  A    between atoms: C_5  and  C_8
REMARK    3  A    between atoms: C_8  and  C_16
REMARK    4  A    between atoms: C_9  and  C_10
REMARK    5  A    between atoms: C_10  and  N_11
REMARK                            x       y       z     vdW  Elec       q    Type
REMARK                         _______ _______ _______ _____ _____    ______ ____
ROOT
ATOM      1  C   UNL     1      -0.340   1.209   0.827  0.00  0.00    +0.005 C 
ATOM      2  C   UNL     1       0.811   1.034   1.512  0.00  0.00    -0.001 C 
ENDROOT
BRANCH   1   7
ATOM      3  C   UNL     1      -3.463  -3.291  -1.057  0.00  0.00    +0.044 C 
ATOM      4  C   UNL     1      -2.681  -2.108  -0.570  0.00  0.00    -0.050 A 
ATOM      5  C   UNL     1      -2.594  -1.834   0.804  0.00  0.00    +0.004 A 
ATOM      6  C   UNL     1      -1.834  -0.754   1.261  0.00  0.00    +0.009 A 
ATOM      7  C   UNL     1      -1.131   0.050   0.351  0.00  0.00    -0.016 A 
ATOM      8  C   UNL     1      -1.218  -0.222  -1.022  0.00  0.00    +0.009 A 
ATOM      9  C   UNL     1      -1.977  -1.303  -1.479  0.00  0.00    +0.004 A 
ENDBRANCH   1   7
BRANCH   1  10
ATOM     10  C   UNL     1      -0.817   2.587   0.513  0.00  0.00    +0.071 A 
ATOM     11  C   UNL     1      -2.148   2.830   0.122  0.00  0.00    +0.028 A 
ATOM     12  C   UNL     1      -2.554   4.134  -0.170  0.00  0.00    +0.004 A 
ATOM     13  C   UNL     1      -1.644   5.186  -0.072  0.00  0.00    +0.020 A 
ATOM     14  C   UNL     1      -0.333   4.917   0.321  0.00  0.00    +0.111 A 
ATOM     15  N   UNL     1       0.046   3.642   0.600  0.00  0.00    -0.255 NA
ENDBRANCH   1  10
BRANCH   2  16
ATOM     16  C   UNL     1       1.464  -0.298   1.782  0.00  0.00    +0.112 C 
BRANCH  16  17
ATOM     17  N   UNL     1       2.633  -0.474   0.901  0.00  0.00    -0.299 NA
ATOM     18  C   UNL     1       3.476  -1.591   1.336  0.00  0.00    +0.085 C 
ATOM     19  C   UNL     1       4.203  -2.102   0.099  0.00  0.00    +0.017 C 
ATOM     20  C   UNL     1       3.433  -1.539  -1.085  0.00  0.00    +0.017 C 
ATOM     21  C   UNL     1       2.253  -0.800  -0.477  0.00  0.00    +0.085 C 
ENDBRANCH  16  17
ENDBRANCH   2  16
TORSDOF 4
