REMARK  Name = 
REMARK  8 active torsions:
REMARK  status: ('A' for Active; 'I' for Inactive)
REMARK    1  A    between atoms: C_1  and  N_2
REMARK    2  A    between atoms: N_2  and  C_3
REMARK    3  A    between atoms: N_2  and  C_4
REMARK    4  A    between atoms: C_4  and  C_5
REMARK    5  A    between atoms: C_5  and  N_6
REMARK    6  A    between atoms: N_6  and  C_7
REMARK    7  A    between atoms: N_6  and  C_14
REMARK    8  A    between atoms: C_7  and  C_8
REMARK                            x       y       z     vdW  Elec       q    Type
REMARK                         _______ _______ _______ _____ _____    ______ ____
ROOT
ATOM      1  N   UNL     1       0.037   0.003  -0.289  0.00  0.00    -0.310 N 
ENDROOT
BRANCH   1   2
ATOM      2  C   UNL     1      -0.597   1.189   0.257  0.00  0.00    +0.122 A 
ATOM      3  C   UNL     1      -1.509   1.958  -0.494  0.00  0.00    +0.043 A 
ATOM      4  C   UNL     1      -2.091   3.091   0.077  0.00  0.00    +0.005 A 
ATOM      5  C   UNL     1      -1.766   3.461   1.381  0.00  0.00    +0.020 A 
ATOM      6  C   UNL     1      -0.854   2.687   2.098  0.00  0.00    +0.113 A 
ATOM      7  N   UNL     1      -0.299   1.586   1.528  0.00  0.00    -0.240 NA
ENDBRANCH   1   2
BRANCH   1   8
ATOM      8  C   UNL     1       1.229  -0.550   0.377  0.00  0.00    +0.122 C 
BRANCH   8   9
ATOM      9  C   UNL     1       2.463   0.303   0.060  0.00  0.00    +0.102 C 
BRANCH   9  11
ATOM     10  C   UNL     1       4.593   0.913   1.041  0.00  0.00    +0.104 C 
ATOM     11  N   UNL     1       3.639  -0.185   0.813  0.00  0.00    -0.307 NA
ATOM     12  C   UNL     1       4.315  -1.277   0.090  0.00  0.00    +0.104 C 
ENDBRANCH   9  11
ENDBRANCH   8   9
ENDBRANCH   1   8
BRANCH   1  13
ATOM     13  C   UNL     1      -0.519  -0.705  -1.456  0.00  0.00    +0.141 C 
BRANCH  13  14
ATOM     14  C   UNL     1      -1.851  -1.322  -1.118  0.00  0.00    -0.030 A 
ATOM     15  C   UNL     1      -3.013  -0.945  -1.813  0.00  0.00    +0.005 A 
ATOM     16  C   UNL     1      -4.245  -1.521  -1.489  0.00  0.00    +0.000 A 
ATOM     17  C   UNL     1      -4.326  -2.479  -0.475  0.00  0.00    +0.000 A 
ATOM     18  C   UNL     1      -3.174  -2.866   0.215  0.00  0.00    +0.000 A 
ATOM     19  C   UNL     1      -1.940  -2.292  -0.106  0.00  0.00    +0.005 A 
ENDBRANCH  13  14
ENDBRANCH   1  13
TORSDOF 6
