REMARK  Name = 
REMARK  12 active torsions:
REMARK  status: ('A' for Active; 'I' for Inactive)
REMARK    1  A    between atoms: C_2  and  N_3
REMARK    2  A    between atoms: N_3  and  C_4
REMARK    3  A    between atoms: N_3  and  C_5
REMARK    4  A    between atoms: N_3  and  C_6
REMARK    5  A    between atoms: C_6  and  C_7
REMARK    6  A    between atoms: C_7  and  O_8
REMARK    7  A    between atoms: O_9  and  C_10
REMARK    8  A    between atoms: C_15  and  C_16
REMARK    9  A    between atoms: O_19  and  C_20
REMARK   10  A    between atoms: C_25  and  C_26
REMARK   11  A    between atoms: O_29  and  C_30
REMARK   12  A    between atoms: C_35  and  C_36
REMARK                            x       y       z     vdW  Elec       q    Type
REMARK                         _______ _______ _______ _____ _____    ______ ____
ROOT
ATOM      1 MG   UNL     1       0.000   0.000   0.000  0.00  0.00    +0.000 Mg
ENDROOT
TORSDOF 0
REMARK  Name = 
REMARK  12 active torsions:
REMARK  status: ('A' for Active; 'I' for Inactive)
REMARK    1  A    between atoms: C_2  and  N_3
REMARK    2  A    between atoms: N_3  and  C_4
REMARK    3  A    between atoms: N_3  and  C_5
REMARK    4  A    between atoms: N_3  and  C_6
REMARK    5  A    between atoms: C_6  and  C_7
REMARK    6  A    between atoms: C_7  and  O_8
REMARK    7  A    between atoms: O_9  and  C_10
REMARK    8  A    between atoms: C_15  and  C_16
REMARK    9  A    between atoms: O_19  and  C_20
REMARK   10  A    between atoms: C_25  and  C_26
REMARK   11  A    between atoms: O_29  and  C_30
REMARK   12  A    between atoms: C_35  and  C_36
REMARK                            x       y       z     vdW  Elec       q    Type
REMARK                         _______ _______ _______ _____ _____    ______ ____
ROOT
ATOM      1  C   UNL     1      -1.549  -0.101  -1.192  0.00  0.00    +0.000 C 
ATOM      2  N   UNL     1      -0.547  -0.143  -0.098  0.00  0.00    +0.000 N 
ATOM      3  C   UNL     1      -0.697  -1.435   0.614  0.00  0.00    +0.000 C 
ATOM      4  C   UNL     1      -0.831   0.974   0.834  0.00  0.00    +0.000 C 
ENDROOT
BRANCH   2   5
ATOM      5  C   UNL     1       0.811  -0.017  -0.714  0.00  0.00    +0.000 C 
BRANCH   5   6
ATOM      6  C   UNL     1       1.996   0.073   0.277  0.00  0.00    +0.000 C 
BRANCH   6   7
ATOM      7  O   UNL     1       2.095   1.352   0.844  0.00  0.00    +0.000 OA
ATOM      8  H   UNL     1       2.452   1.952   0.138  0.00  0.00    +0.000 HD
ENDBRANCH   6   7
ENDBRANCH   5   6
ENDBRANCH   2   5
TORSDOF 3
REMARK  Name = 
REMARK  12 active torsions:
REMARK  status: ('A' for Active; 'I' for Inactive)
REMARK    1  A    between atoms: C_2  and  N_3
REMARK    2  A    between atoms: N_3  and  C_4
REMARK    3  A    between atoms: N_3  and  C_5
REMARK    4  A    between atoms: N_3  and  C_6
REMARK    5  A    between atoms: C_6  and  C_7
REMARK    6  A    between atoms: C_7  and  O_8
REMARK    7  A    between atoms: O_9  and  C_10
REMARK    8  A    between atoms: C_15  and  C_16
REMARK    9  A    between atoms: O_19  and  C_20
REMARK   10  A    between atoms: C_25  and  C_26
REMARK   11  A    between atoms: O_29  and  C_30
REMARK   12  A    between atoms: C_35  and  C_36
REMARK                            x       y       z     vdW  Elec       q    Type
REMARK                         _______ _______ _______ _____ _____    ______ ____
ROOT
ATOM      1  C   UNL     1      -0.088  -0.992   0.311  0.00  0.00    +0.000 A 
ATOM      2  C   UNL     1       1.278  -1.129   0.033  0.00  0.00    +0.000 A 
ATOM      3  C   UNL     1       2.023  -0.041  -0.426  0.00  0.00    +0.000 A 
ATOM      4  C   UNL     1       1.407   1.196  -0.613  0.00  0.00    +0.000 A 
ATOM      5  C   UNL     1       0.041   1.343  -0.361  0.00  0.00    +0.000 A 
ATOM      6  C   UNL     1      -0.729   0.252   0.083  0.00  0.00    +0.000 A 
ENDROOT
BRANCH   6   7
ATOM      7  C   UNL     1      -2.187   0.437   0.257  0.00  0.00    +0.000 C 
ATOM      8  O   UNL     1      -3.076  -0.584  -0.055  0.00  0.00    +0.000 OA
ATOM      9  O   UNL     1      -2.642   1.550   0.631  0.00  0.00    +0.000 OA
ENDBRANCH   6   7
BRANCH   1  10
ATOM     10  O   UNL     1      -0.757  -2.097   0.843  0.00  0.00    +0.000 OA
ATOM     11  H   UNL     1      -1.687  -2.048   1.234  0.00  0.00    +0.000 HD
ENDBRANCH   1  10
TORSDOF 2
REMARK  Name = 
REMARK  12 active torsions:
REMARK  status: ('A' for Active; 'I' for Inactive)
REMARK    1  A    between atoms: C_2  and  N_3
REMARK    2  A    between atoms: N_3  and  C_4
REMARK    3  A    between atoms: N_3  and  C_5
REMARK    4  A    between atoms: N_3  and  C_6
REMARK    5  A    between atoms: C_6  and  C_7
REMARK    6  A    between atoms: C_7  and  O_8
REMARK    7  A    between atoms: O_9  and  C_10
REMARK    8  A    between atoms: C_15  and  C_16
REMARK    9  A    between atoms: O_19  and  C_20
REMARK   10  A    between atoms: C_25  and  C_26
REMARK   11  A    between atoms: O_29  and  C_30
REMARK   12  A    between atoms: C_35  and  C_36
REMARK                            x       y       z     vdW  Elec       q    Type
REMARK                         _______ _______ _______ _____ _____    ______ ____
ROOT
ATOM      1  C   UNL     1      -0.087  -0.992   0.313  0.00  0.00    +0.000 A 
ATOM      2  C   UNL     1       1.280  -1.127   0.040  0.00  0.00    +0.000 A 
ATOM      3  C   UNL     1       2.024  -0.040  -0.419  0.00  0.00    +0.000 A 
ATOM      4  C   UNL     1       1.407   1.196  -0.612  0.00  0.00    +0.000 A 
ATOM      5  C   UNL     1       0.041   1.342  -0.365  0.00  0.00    +0.000 A 
ATOM      6  C   UNL     1      -0.730   0.251   0.079  0.00  0.00    +0.000 A 
ENDROOT
BRANCH   6   7
ATOM      7  C   UNL     1      -2.188   0.435   0.248  0.00  0.00    +0.000 C 
ATOM      8  O   UNL     1      -3.075  -0.588  -0.063  0.00  0.00    +0.000 OA
ATOM      9  O   UNL     1      -2.646   1.548   0.619  0.00  0.00    +0.000 OA
ENDBRANCH   6   7
BRANCH   1  10
ATOM     10  O   UNL     1      -0.757  -2.095   0.846  0.00  0.00    +0.000 OA
ATOM     11  H   UNL     1      -1.689  -2.046   1.234  0.00  0.00    +0.000 HD
ENDBRANCH   1  10
TORSDOF 2
REMARK  Name = 
REMARK  12 active torsions:
REMARK  status: ('A' for Active; 'I' for Inactive)
REMARK    1  A    between atoms: C_2  and  N_3
REMARK    2  A    between atoms: N_3  and  C_4
REMARK    3  A    between atoms: N_3  and  C_5
REMARK    4  A    between atoms: N_3  and  C_6
REMARK    5  A    between atoms: C_6  and  C_7
REMARK    6  A    between atoms: C_7  and  O_8
REMARK    7  A    between atoms: O_9  and  C_10
REMARK    8  A    between atoms: C_15  and  C_16
REMARK    9  A    between atoms: O_19  and  C_20
REMARK   10  A    between atoms: C_25  and  C_26
REMARK   11  A    between atoms: O_29  and  C_30
REMARK   12  A    between atoms: C_35  and  C_36
REMARK                            x       y       z     vdW  Elec       q    Type
REMARK                         _______ _______ _______ _____ _____    ______ ____
ROOT
ATOM      1  C   UNL     1      -0.088  -0.993   0.310  0.00  0.00    +0.000 A 
ATOM      2  C   UNL     1       1.279  -1.128   0.036  0.00  0.00    +0.000 A 
ATOM      3  C   UNL     1       2.024  -0.039  -0.421  0.00  0.00    +0.000 A 
ATOM      4  C   UNL     1       1.408   1.197  -0.609  0.00  0.00    +0.000 A 
ATOM      5  C   UNL     1       0.041   1.344  -0.360  0.00  0.00    +0.000 A 
ATOM      6  C   UNL     1      -0.730   0.251   0.081  0.00  0.00    +0.000 A 
ENDROOT
BRANCH   6   7
ATOM      7  C   UNL     1      -2.188   0.435   0.251  0.00  0.00    +0.000 C 
ATOM      8  O   UNL     1      -3.075  -0.587  -0.063  0.00  0.00    +0.000 OA
ATOM      9  O   UNL     1      -2.645   1.548   0.626  0.00  0.00    +0.000 OA
ENDBRANCH   6   7
BRANCH   1  10
ATOM     10  O   UNL     1      -0.757  -2.098   0.839  0.00  0.00    +0.000 OA
ATOM     11  H   UNL     1      -1.689  -2.050   1.228  0.00  0.00    +0.000 HD
ENDBRANCH   1  10
TORSDOF 2
