REMARK  Name = 
REMARK  26 active torsions:
REMARK  status: ('A' for Active; 'I' for Inactive)
REMARK    1  A    between atoms: C_1  and  O_2
REMARK    2  A    between atoms: O_2  and  C_3
REMARK    3  A    between atoms: C_5  and  O_6
REMARK    4  A    between atoms: O_6  and  C_7
REMARK    5  A    between atoms: C_8  and  C_9
REMARK    6  A    between atoms: C_10  and  O_11
REMARK    7  A    between atoms: O_11  and  C_12
REMARK    8  A    between atoms: C_14  and  C_15
REMARK    9  A    between atoms: C_17  and  N_23
REMARK   10  A    between atoms: C_18  and  O_19
REMARK   11  A    between atoms: O_19  and  C_20
REMARK   12  A    between atoms: C_20  and  C_21
REMARK   13  A    between atoms: N_23  and  C_24
REMARK   14  A    between atoms: N_23  and  C_25
REMARK   15  A    between atoms: C_26  and  C_27
REMARK   16  A    between atoms: C_34  and  C_35
REMARK   17  A    between atoms: C_36  and  O_37
REMARK   18  A    between atoms: O_37  and  C_38
REMARK   19  A    between atoms: C_38  and  C_39
REMARK   20  A    between atoms: C_41  and  C_42
REMARK   21  A    between atoms: C_43  and  C_44
REMARK   22  A    between atoms: C_48  and  C_49
REMARK   23  A    between atoms: C_51  and  C_52
REMARK   24  A    between atoms: C_53  and  O_54
REMARK   25  A    between atoms: O_54  and  C_55
REMARK   26  A    between atoms: C_55  and  C_56
REMARK                            x       y       z     vdW  Elec       q    Type
REMARK                         _______ _______ _______ _____ _____    ______ ____
ROOT
ATOM      1  C   UNL     1      -0.969  -0.632  -0.305  0.00  0.00    +0.140 C 
ATOM      2  C   UNL     1       0.520  -1.003  -0.698  0.00  0.00    +0.045 C 
ATOM      3  C   UNL     1       0.647  -2.513  -1.025  0.00  0.00    +0.013 C 
ATOM      4  C   UNL     1       1.677  -0.590   0.296  0.00  0.00    +0.130 C 
ATOM      5  C   UNL     1       1.540   0.818   1.030  0.00  0.00    +0.018 C 
ATOM      6  C   UNL     1       2.442   0.844   2.289  0.00  0.00    +0.010 C 
ATOM      7  C   UNL     1       1.818   2.019   0.072  0.00  0.00    +0.051 C 
ATOM      8  C   UNL     1       1.570   3.465   0.631  0.00  0.00    +0.151 C 
ATOM      9  C   UNL     1       2.818   4.248   0.930  0.00  0.00    +0.204 C 
ATOM     10  O   UNL     1       2.073   3.622   1.944  0.00  0.00    -0.360 OA
ATOM     11  C   UNL     1       0.155   4.076   0.601  0.00  0.00    +0.173 C 
ATOM     12  O   UNL     1      -0.756   3.345   0.960  0.00  0.00    -0.294 OA
ATOM     13  C   UNL     1      -0.177   5.526   0.184  0.00  0.00    +0.096 C 
ATOM     14  C   UNL     1       0.501   6.520   1.167  0.00  0.00    +0.019 C 
ATOM     15  C   UNL     1      -1.730   5.828   0.112  0.00  0.00    +0.193 C 
ATOM     16  C   UNL     1      -2.546   5.212  -1.079  0.00  0.00    +0.068 C 
ATOM     17  C   UNL     1      -1.802   5.278  -2.424  0.00  0.00    +0.015 C 
ATOM     18  C   UNL     1      -3.168   3.817  -0.786  0.00  0.00    +0.180 C 
ATOM     19  C   UNL     1      -4.516   3.625  -1.511  0.00  0.00    +0.052 C 
ATOM     20  O   UNL     1      -2.284   2.776  -1.197  0.00  0.00    -0.461 OA
ATOM     21  C   UNL     1      -2.376   1.475  -0.687  0.00  0.00    +0.313 C 
ATOM     22  O   UNL     1      -3.139   1.222   0.280  0.00  0.00    -0.250 OA
ATOM     23  C   UNL     1      -1.565   0.388  -1.338  0.00  0.00    +0.124 C 
ATOM     24  C   UNL     1      -2.359  -0.281  -2.472  0.00  0.00    +0.022 C 
ENDROOT
BRANCH   1  25
ATOM     25  O   UNL     1      -1.785  -1.803  -0.228  0.00  0.00    -0.347 OA
BRANCH  25  28
ATOM     26  C   UNL     1      -4.998  -2.604   1.463  0.00  0.00    +0.166 C 
ATOM     27  C   UNL     1      -4.125  -1.806   0.488  0.00  0.00    +0.096 C 
ATOM     28  C   UNL     1      -2.635  -1.865   0.918  0.00  0.00    +0.254 C 
ATOM     29  O   UNL     1      -2.321  -3.030   1.672  0.00  0.00    -0.345 OA
ATOM     30  C   UNL     1      -2.996  -4.179   1.183  0.00  0.00    +0.161 C 
ATOM     31  C   UNL     1      -2.413  -5.420   1.863  0.00  0.00    +0.042 C 
ATOM     32  C   UNL     1      -4.531  -4.080   1.436  0.00  0.00    +0.233 C 
BRANCH  26  34
ATOM     33  C   UNL     1      -5.566  -0.906   2.982  0.00  0.00    +0.194 C 
ATOM     34  O   UNL     1      -4.867  -2.123   2.794  0.00  0.00    -0.376 OA
ENDBRANCH  26  34
BRANCH  32  35
ATOM     35  O   UNL     1      -5.202  -4.795   0.395  0.00  0.00    -0.456 OA
BRANCH  35  36
ATOM     36  C   UNL     1      -6.502  -5.305   0.509  0.00  0.00    +0.304 C 
ATOM     37  C   UNL     1      -7.051  -6.126  -0.609  0.00  0.00    +0.136 C 
ATOM     38  O   UNL     1      -7.246  -4.975   1.470  0.00  0.00    -0.251 OA
ENDBRANCH  35  36
ENDBRANCH  32  35
ENDBRANCH  25  28
ENDBRANCH   1  25
BRANCH   4  39
ATOM     39  O   UNL     1       2.878  -0.615  -0.480  0.00  0.00    -0.344 OA
BRANCH  39  40
ATOM     40  C   UNL     1       4.039  -1.071   0.201  0.00  0.00    +0.293 C 
ATOM     41  O   UNL     1       5.067  -0.092   0.061  0.00  0.00    -0.345 OA
ATOM     42  C   UNL     1       5.747  -0.126  -1.187  0.00  0.00    +0.120 C 
ATOM     43  C   UNL     1       4.868   0.357  -2.359  0.00  0.00    +0.038 C 
ATOM     44  C   UNL     1       6.430  -1.494  -1.475  0.00  0.00    +0.054 C 
ATOM     45  C   UNL     1       5.979  -2.576  -0.470  0.00  0.00    +0.104 C 
ATOM     46  C   UNL     1       4.448  -2.493  -0.292  0.00  0.00    +0.249 C 
BRANCH  45  47
ATOM     47  N   UNL     1       6.444  -3.958  -0.799  0.00  0.00    -0.302 NA
ATOM     48  C   UNL     1       6.237  -4.365  -2.204  0.00  0.00    +0.105 C 
ATOM     49  C   UNL     1       7.852  -4.163  -0.419  0.00  0.00    +0.105 C 
ENDBRANCH  45  47
BRANCH  46  50
ATOM     50  O   UNL     1       4.020  -3.455   0.681  0.00  0.00    -0.455 OA
BRANCH  50  51
ATOM     51  C   UNL     1       3.677  -4.783   0.387  0.00  0.00    +0.304 C 
ATOM     52  C   UNL     1       3.457  -5.748   1.505  0.00  0.00    +0.136 C 
ATOM     53  O   UNL     1       3.567  -5.186  -0.798  0.00  0.00    -0.251 OA
ENDBRANCH  50  51
ENDBRANCH  46  50
ENDBRANCH  39  40
ENDBRANCH   4  39
BRANCH  15  54
ATOM     54  O   UNL     1      -1.954   7.248   0.047  0.00  0.00    -0.460 OA
BRANCH  54  55
ATOM     55  C   UNL     1      -2.752   7.966   0.953  0.00  0.00    +0.304 C 
ATOM     56  C   UNL     1      -3.110   9.380   0.636  0.00  0.00    +0.136 C 
ATOM     57  O   UNL     1      -3.144   7.449   2.038  0.00  0.00    -0.251 OA
ENDBRANCH  54  55
ENDBRANCH  15  54
TORSDOF 12
