REMARK  Name = 
REMARK  8 active torsions:
REMARK  status: ('A' for Active; 'I' for Inactive)
REMARK    1  A    between atoms: C_1  and  C_2
REMARK    2  A    between atoms: C_2  and  N_3
REMARK    3  A    between atoms: N_3  and  C_4
REMARK    4  A    between atoms: C_4  and  C_5
REMARK    5  A    between atoms: C_11  and  C_13
REMARK    6  A    between atoms: C_13  and  C_14
REMARK    7  A    between atoms: C_13  and  C_16
REMARK    8  A    between atoms: C_14  and  O_15
REMARK                            x       y       z     vdW  Elec       q    Type
REMARK                         _______ _______ _______ _____ _____    ______ ____
ROOT
ATOM      1  N   UNL     1      -0.818  -1.002  -0.124  0.00  0.00    -0.297 N 
ATOM      2  C   UNL     1       0.113  -0.802   0.961  0.00  0.00    +0.225 C 
ATOM      3  O   UNL     1      -0.286  -0.246   2.021  0.00  0.00    -0.275 OA
ENDROOT
BRANCH   1   5
ATOM      4  C   UNL     1      -0.249   0.694  -1.826  0.00  0.00    +0.024 C 
ATOM      5  C   UNL     1      -0.411  -0.794  -1.523  0.00  0.00    +0.105 C 
ENDBRANCH   1   5
BRANCH   1   6
ATOM      6  C   UNL     1      -2.204  -1.388   0.175  0.00  0.00    +0.143 C 
BRANCH   6   7
ATOM      7  C   UNL     1      -3.141  -0.233  -0.058  0.00  0.00    -0.027 A 
ATOM      8  C   UNL     1      -3.838  -0.116  -1.270  0.00  0.00    +0.025 A 
ATOM      9  C   UNL     1      -4.673   0.984  -1.481  0.00  0.00    +0.111 A 
ATOM     10  N   UNL     1      -4.804   1.935  -0.519  0.00  0.00    -0.263 NA
ATOM     11  C   UNL     1      -4.138   1.849   0.663  0.00  0.00    +0.111 A 
ATOM     12  C   UNL     1      -3.293   0.766   0.915  0.00  0.00    +0.025 A 
ENDBRANCH   6   7
ENDBRANCH   1   6
BRANCH   2  13
ATOM     13  C   UNL     1       1.556  -1.251   0.855  0.00  0.00    +0.130 C 
BRANCH  13  14
ATOM     14  C   UNL     1       2.441  -0.115   0.382  0.00  0.00    -0.033 A 
ATOM     15  C   UNL     1       3.196  -0.254  -0.798  0.00  0.00    +0.004 A 
ATOM     16  C   UNL     1       4.008   0.793  -1.246  0.00  0.00    +0.000 A 
ATOM     17  C   UNL     1       4.080   1.984  -0.520  0.00  0.00    +0.000 A 
ATOM     18  C   UNL     1       3.342   2.131   0.657  0.00  0.00    +0.000 A 
ATOM     19  C   UNL     1       2.529   1.088   1.109  0.00  0.00    +0.004 A 
ENDBRANCH  13  14
BRANCH  13  20
ATOM     20  C   UNL     1       2.084  -1.832   2.181  0.00  0.00    +0.173 C 
BRANCH  20  21
ATOM     21  O   UNL     1       1.388  -3.003   2.519  0.00  0.00    -0.394 OA
ATOM     22  H   UNL     1       0.565  -2.720   2.997  0.00  0.00    +0.209 HD
ENDBRANCH  20  21
ENDBRANCH  13  20
ENDBRANCH   2  13
TORSDOF 7
