REMARK  Name = 
REMARK  6 active torsions:
REMARK  status: ('A' for Active; 'I' for Inactive)
REMARK    1  A    between atoms: O_1  and  C_2
REMARK    2  A    between atoms: C_2  and  C_3
REMARK    3  A    between atoms: C_2  and  C_18
REMARK    4  A    between atoms: C_2  and  C_24
REMARK    5  A    between atoms: C_3  and  O_5
REMARK    6  A    between atoms: O_5  and  C_6
REMARK                            x       y       z     vdW  Elec       q    Type
REMARK                         _______ _______ _______ _____ _____    ______ ____
ROOT
ATOM      1  C   UNL     1       2.882  -0.052   1.280  0.00  0.00    +0.213 C 
ENDROOT
BRANCH   1   2
ATOM      2  C   UNL     1       3.047  -0.622  -0.136  0.00  0.00    -0.001 A 
ATOM      3  C   UNL     1       2.223  -0.175  -1.195  0.00  0.00    +0.007 A 
ATOM      4  C   UNL     1       2.391  -0.671  -2.490  0.00  0.00    +0.000 A 
ATOM      5  C   UNL     1       3.401  -1.597  -2.758  0.00  0.00    +0.000 A 
ATOM      6  C   UNL     1       4.254  -2.017  -1.735  0.00  0.00    +0.000 A 
ATOM      7  C   UNL     1       4.090  -1.526  -0.437  0.00  0.00    +0.007 A 
ENDBRANCH   1   2
BRANCH   1   8
ATOM      8  C   UNL     1       3.493   1.350   1.283  0.00  0.00    -0.001 A 
ATOM      9  C   UNL     1       4.864   1.527   1.576  0.00  0.00    +0.007 A 
ATOM     10  C   UNL     1       5.448   2.798   1.528  0.00  0.00    +0.000 A 
ATOM     11  C   UNL     1       4.682   3.909   1.169  0.00  0.00    +0.000 A 
ATOM     12  C   UNL     1       3.333   3.749   0.841  0.00  0.00    +0.000 A 
ATOM     13  C   UNL     1       2.744   2.481   0.883  0.00  0.00    +0.007 A 
ENDBRANCH   1   8
BRANCH   1  14
ATOM     14  O   UNL     1       3.569  -0.850   2.221  0.00  0.00    -0.370 OA
ATOM     15  H   UNL     1       3.164  -1.759   2.211  0.00  0.00    +0.212 HD
ENDBRANCH   1  14
BRANCH   1  16
ATOM     16  C   UNL     1       1.424  -0.019   1.715  0.00  0.00    +0.349 C 
ATOM     17  O   UNL     1       1.091   0.658   2.729  0.00  0.00    -0.247 OA
BRANCH  16  18
ATOM     18  O   UNL     1       0.476  -0.808   1.047  0.00  0.00    -0.459 OA
BRANCH  18  19
ATOM     19  C   UNL     1      -0.928  -0.742   1.289  0.00  0.00    +0.174 C 
ATOM     20  C   UNL     1      -1.618  -1.894   0.509  0.00  0.00    +0.030 C 
ATOM     21  C   UNL     1      -3.103  -1.582   0.166  0.00  0.00    -0.062 C 
ATOM     22  C   UNL     1      -3.867  -1.393   1.497  0.00  0.00    -0.016 C 
ATOM     23  C   UNL     1      -3.801   0.116   1.753  0.00  0.00    -0.016 C 
ATOM     24  C   UNL     1      -2.986   0.666   0.566  0.00  0.00    -0.062 C 
ATOM     25  C   UNL     1      -1.473   0.672   0.933  0.00  0.00    +0.030 C 
ATOM     26  N   UNL     1      -3.241  -0.280  -0.542  0.00  0.00    +0.384 N 
ATOM     27  C   UNL     1      -4.608  -0.117  -1.112  0.00  0.00    -0.074 C 
ATOM     28  C   UNL     1      -4.572  -0.624  -2.550  0.00  0.00    -0.020 C 
ATOM     29  C   UNL     1      -3.101  -0.701  -2.913  0.00  0.00    -0.020 C 
ATOM     30  C   UNL     1      -2.379  -0.079  -1.733  0.00  0.00    -0.074 C 
ENDBRANCH  18  19
ENDBRANCH  16  18
ENDBRANCH   1  16
TORSDOF 6
