REMARK  Name = 
REMARK  5 active torsions:
REMARK  status: ('A' for Active; 'I' for Inactive)
REMARK    1  A    between atoms: N_3  and  C_8
REMARK    2  A    between atoms: C_6  and  N_7
REMARK    3  A    between atoms: C_15  and  C_28
REMARK    4  A    between atoms: N_17  and  C_18
REMARK    5  A    between atoms: C_28  and  O_29
REMARK                            x       y       z     vdW  Elec       q    Type
REMARK                         _______ _______ _______ _____ _____    ______ ____
ROOT
ATOM      1  C   UNL     1       1.006   1.040  -0.713  0.00  0.00    +0.159 A 
ATOM      2  C   UNL     1       0.850   2.380  -1.119  0.00  0.00    +0.164 A 
ATOM      3  F   UNL     1       1.888   3.115  -1.587  0.00  0.00    -0.202 F 
ATOM      4  C   UNL     1      -0.409   2.978  -1.044  0.00  0.00    +0.057 A 
ATOM      5  C   UNL     1      -1.514   2.255  -0.567  0.00  0.00    +0.068 A 
ATOM      6  C   UNL     1      -2.798   2.823  -0.486  0.00  0.00    +0.205 A 
ATOM      7  O   UNL     1      -2.978   4.020  -0.844  0.00  0.00    -0.286 OA
ATOM      8  C   UNL     1      -3.876   2.053  -0.006  0.00  0.00    +0.122 A 
ATOM      9  C   UNL     1      -3.630   0.724   0.384  0.00  0.00    +0.112 A 
ATOM     10  N   UNL     1      -2.379   0.180   0.304  0.00  0.00    -0.297 N 
ATOM     11  C   UNL     1      -1.324   0.918  -0.164  0.00  0.00    +0.151 A 
ATOM     12  N   UNL     1      -0.083   0.363  -0.256  0.00  0.00    -0.211 NA
ENDROOT
BRANCH  10  13
ATOM     13  C   UNL     1      -2.189  -1.184   0.729  0.00  0.00    +0.083 A 
ATOM     14  C   UNL     1      -2.854  -2.236   0.072  0.00  0.00    +0.150 A 
ATOM     15  F   UNL     1      -3.671  -1.980  -0.980  0.00  0.00    -0.203 F 
ATOM     16  C   UNL     1      -2.659  -3.557   0.487  0.00  0.00    +0.078 A 
ATOM     17  C   UNL     1      -1.804  -3.839   1.557  0.00  0.00    +0.126 A 
ATOM     18  F   UNL     1      -1.616  -5.121   1.955  0.00  0.00    -0.205 F 
ATOM     19  C   UNL     1      -1.143  -2.799   2.215  0.00  0.00    +0.040 A 
ATOM     20  C   UNL     1      -1.335  -1.476   1.806  0.00  0.00    +0.032 A 
ENDBRANCH  10  13
BRANCH   1  23
ATOM     21  C   UNL     1       4.590  -0.147  -1.050  0.00  0.00    +0.029 C 
ATOM     22  C   UNL     1       3.536   0.941  -1.198  0.00  0.00    +0.112 C 
ATOM     23  N   UNL     1       2.277   0.355  -0.759  0.00  0.00    -0.312 N 
ATOM     24  C   UNL     1       2.417  -1.034  -0.349  0.00  0.00    +0.112 C 
ATOM     25  C   UNL     1       3.885  -1.390  -0.518  0.00  0.00    +0.029 C 
ATOM     26  C   UNL     1       4.860  -0.626   0.372  0.00  0.00    +0.061 C 
BRANCH  26  27
ATOM     27  N   UNL     1       6.165  -1.266   0.542  0.00  0.00    -0.327 NA
ATOM     28  H   UNL     1       6.412  -1.861  -0.283  0.00  0.00    +0.118 HD
ATOM     29  H   UNL     1       6.088  -1.908   1.363  0.00  0.00    +0.118 HD
ENDBRANCH  26  27
ENDBRANCH   1  23
BRANCH   8  30
ATOM     30  C   UNL     1      -5.254   2.605   0.100  0.00  0.00    +0.342 C 
ATOM     31  O   UNL     1      -6.196   1.885   0.530  0.00  0.00    -0.245 OA
BRANCH  30  32
ATOM     32  O   UNL     1      -5.528   3.919  -0.272  0.00  0.00    -0.477 OA
ATOM     33  H   UNL     1      -6.466   4.295  -0.201  0.00  0.00    +0.295 HD
ENDBRANCH  30  32
ENDBRANCH   8  30
TORSDOF 5
