REMARK  Name = 
REMARK  9 active torsions:
REMARK  status: ('A' for Active; 'I' for Inactive)
REMARK    1  A    between atoms: N_13  and  C_14
REMARK    2  A    between atoms: N_13  and  C_15
REMARK    3  A    between atoms: C_23  and  O_24
REMARK    4  A    between atoms: O_24  and  C_25
REMARK    5  A    between atoms: N_30  and  C_31
REMARK    6  A    between atoms: C_34  and  O_35
REMARK    7  A    between atoms: C_39  and  O_40
REMARK    8  A    between atoms: O_40  and  C_41
REMARK    9  A    between atoms: C_42  and  O_43
REMARK                            x       y       z     vdW  Elec       q    Type
REMARK                         _______ _______ _______ _____ _____    ______ ____
ROOT
ATOM      1  C   UNL     1      -4.188  -1.925   0.097  0.00  0.00    +0.091 C 
ATOM      2  C   UNL     1      -2.975  -2.725  -0.485  0.00  0.00    +0.058 C 
ATOM      3  C   UNL     1      -1.607  -2.365   0.048  0.00  0.00    -0.045 A 
ATOM      4  C   UNL     1      -1.339  -2.343   1.429  0.00  0.00    +0.007 A 
ATOM      5  C   UNL     1      -0.102  -1.890   1.898  0.00  0.00    +0.046 A 
ATOM      6  C   UNL     1       0.907  -1.520   1.001  0.00  0.00    +0.129 A 
ATOM      7  O   UNL     1       2.124  -1.038   1.505  0.00  0.00    -0.452 OA
ATOM      8  C   UNL     1       3.335  -1.193   0.828  0.00  0.00    +0.175 A 
ATOM      9  C   UNL     1       3.844  -0.172  -0.021  0.00  0.00    -0.011 A 
ATOM     10  C   UNL     1       4.931  -0.510  -0.867  0.00  0.00    -0.040 A 
ATOM     11  C   UNL     1       5.388   0.392  -1.973  0.00  0.00    +0.017 C 
ATOM     12  C   UNL     1       4.364   1.488  -2.261  0.00  0.00    -0.070 C 
ATOM     13  N   UNL     1       3.909   2.175  -1.021  0.00  0.00    +0.381 N 
ATOM     14  C   UNL     1       5.087   2.765  -0.316  0.00  0.00    -0.091 C 
ATOM     15  C   UNL     1       3.022   3.286  -1.458  0.00  0.00    -0.091 C 
ATOM     16  C   UNL     1       3.138   1.201  -0.156  0.00  0.00    -0.027 C 
ATOM     17  C   UNL     1       2.774   1.813   1.251  0.00  0.00    +0.025 C 
ATOM     18  C   UNL     1       1.305   1.751   1.619  0.00  0.00    -0.045 A 
ATOM     19  C   UNL     1       0.306   2.211   0.739  0.00  0.00    +0.053 A 
ATOM     20  C   UNL     1      -1.042   2.205   1.116  0.00  0.00    +0.170 A 
ATOM     21  O   UNL     1      -2.008   2.576   0.167  0.00  0.00    -0.449 OA
ATOM     22  C   UNL     1      -3.111   1.776  -0.179  0.00  0.00    +0.170 A 
ATOM     23  C   UNL     1      -4.252   2.379  -0.712  0.00  0.00    +0.162 A 
ATOM     24  C   UNL     1      -5.404   1.601  -0.918  0.00  0.00    +0.053 A 
ATOM     25  C   UNL     1      -5.409   0.229  -0.616  0.00  0.00    -0.038 A 
ATOM     26  C   UNL     1      -6.722  -0.503  -0.638  0.00  0.00    +0.051 C 
ATOM     27  C   UNL     1      -6.638  -1.808   0.159  0.00  0.00    +0.089 C 
ATOM     28  N   UNL     1      -5.470  -2.608  -0.251  0.00  0.00    -0.298 NA
ATOM     29  C   UNL     1      -5.583  -3.030  -1.666  0.00  0.00    +0.105 C 
ATOM     30  C   UNL     1      -4.205  -0.422  -0.250  0.00  0.00    -0.023 A 
ATOM     31  C   UNL     1      -3.088   0.388   0.025  0.00  0.00    +0.055 A 
ATOM     32  C   UNL     1      -1.395   1.822   2.429  0.00  0.00    +0.159 A 
ATOM     33  C   UNL     1      -0.404   1.382   3.310  0.00  0.00    +0.049 A 
ATOM     34  C   UNL     1       0.934   1.353   2.914  0.00  0.00    +0.007 A 
ATOM     35  C   UNL     1       5.611  -1.724  -0.701  0.00  0.00    +0.053 A 
ATOM     36  C   UNL     1       5.178  -2.668   0.238  0.00  0.00    +0.165 A 
ATOM     37  C   UNL     1       4.028  -2.408   0.983  0.00  0.00    +0.202 A 
ATOM     38  C   UNL     1       0.670  -1.623  -0.379  0.00  0.00    +0.046 A 
ATOM     39  C   UNL     1      -0.579  -2.028  -0.850  0.00  0.00    +0.007 A 
ENDROOT
BRANCH  23  40
ATOM     40  O   UNL     1      -4.219   3.756  -0.980  0.00  0.00    -0.491 OA
ATOM     41  C   UNL     1      -5.313   4.502  -1.504  0.00  0.00    +0.277 C 
ENDBRANCH  23  40
BRANCH  32  42
ATOM     42  O   UNL     1      -2.709   1.894   2.891  0.00  0.00    -0.503 OA
ATOM     43  H   UNL     1      -3.456   2.312   2.353  0.00  0.00    +0.292 HD
ENDBRANCH  32  42
BRANCH  36  44
ATOM     44  O   UNL     1       5.849  -3.884   0.443  0.00  0.00    -0.491 OA
ATOM     45  C   UNL     1       7.032  -4.280  -0.244  0.00  0.00    +0.277 C 
ENDBRANCH  36  44
BRANCH  37  46
ATOM     46  O   UNL     1       3.576  -3.380   1.878  0.00  0.00    -0.501 OA
ATOM     47  H   UNL     1       2.761  -3.246   2.462  0.00  0.00    +0.292 HD
ENDBRANCH  37  46
TORSDOF 4
