REMARK  Name = 
REMARK  7 active torsions:
REMARK  status: ('A' for Active; 'I' for Inactive)
REMARK    1  A    between atoms: C_1  and  C_2
REMARK    2  A    between atoms: C_2  and  C_3
REMARK    3  A    between atoms: C_2  and  C_4
REMARK    4  A    between atoms: C_5  and  O_6
REMARK    5  A    between atoms: O_6  and  C_7
REMARK    6  A    between atoms: C_7  and  C_8
REMARK    7  A    between atoms: C_14  and  C_15
REMARK                            x       y       z     vdW  Elec       q    Type
REMARK                         _______ _______ _______ _____ _____    ______ ____
ROOT
ATOM      1  C   UNL     1      -1.667  -0.485  -0.168  0.00  0.00    -0.003 A 
ATOM      2  C   UNL     1      -0.739   0.582  -0.206  0.00  0.00    +0.125 A 
ATOM      3  C   UNL     1      -1.188   1.882  -0.518  0.00  0.00    +0.049 A 
ATOM      4  C   UNL     1      -2.542   2.128  -0.779  0.00  0.00    -0.047 A 
ATOM      5  C   UNL     1      -3.001   3.508  -1.149  0.00  0.00    +0.044 C 
ATOM      6  C   UNL     1      -3.452   1.066  -0.761  0.00  0.00    +0.004 A 
ATOM      7  C   UNL     1      -3.021  -0.225  -0.453  0.00  0.00    +0.008 A 
ENDROOT
BRANCH   1   9
ATOM      8  C   UNL     1      -1.913  -2.419   1.431  0.00  0.00    +0.012 C 
ATOM      9  C   UNL     1      -1.219  -1.902   0.165  0.00  0.00    +0.016 C 
ATOM     10  C   UNL     1      -1.456  -2.848  -1.019  0.00  0.00    +0.012 C 
ENDBRANCH   1   9
BRANCH   2  11
ATOM     11  O   UNL     1       0.615   0.323   0.067  0.00  0.00    -0.484 OA
BRANCH  11  12
ATOM     12  C   UNL     1       1.651   1.301   0.059  0.00  0.00    +0.299 C 
BRANCH  12  13
ATOM     13  C   UNL     1       2.946   0.639   0.388  0.00  0.00    +0.128 C 
ATOM     14  N   UNL     1       3.390   0.537   1.592  0.00  0.00    -0.269 NA
ATOM     15  C   UNL     1       4.636  -0.222   1.591  0.00  0.00    +0.162 C 
ATOM     16  C   UNL     1       4.862  -0.621   0.124  0.00  0.00    +0.126 C 
ATOM     17  N   UNL     1       3.740  -0.026  -0.573  0.00  0.00    -0.328 N 
ATOM     18  H   UNL     1       3.540  -0.100  -1.595  0.00  0.00    +0.147 HD
ENDBRANCH  12  13
ENDBRANCH  11  12
ENDBRANCH   2  11
TORSDOF 4
