REMARK  Name = 
REMARK  15 active torsions:
REMARK  status: ('A' for Active; 'I' for Inactive)
REMARK    1  A    between atoms: C_1  and  C_2
REMARK    2  A    between atoms: C_2  and  C_3
REMARK    3  A    between atoms: C_3  and  O_4
REMARK    4  A    between atoms: O_4  and  C_5
REMARK    5  A    between atoms: C_6  and  C_23
REMARK    6  A    between atoms: C_8  and  S_11
REMARK    7  A    between atoms: S_11  and  N_14
REMARK    8  A    between atoms: N_14  and  C_15
REMARK    9  A    between atoms: C_15  and  C_16
REMARK   10  A    between atoms: C_16  and  C_17
REMARK   11  A    between atoms: N_21  and  C_22
REMARK   12  A    between atoms: C_30  and  C_31
REMARK   13  A    between atoms: C_31  and  C_32
REMARK   14  A    between atoms: C_32  and  C_33
REMARK   15  A    between atoms: N_35  and  C_36
REMARK                            x       y       z     vdW  Elec       q    Type
REMARK                         _______ _______ _______ _____ _____    ______ ____
ROOT
ATOM      1  C   UNL     1      -0.695  -1.904   0.484  0.00  0.00    +0.131 A 
ATOM      2  C   UNL     1      -1.195  -0.582   0.481  0.00  0.00    +0.061 A 
ATOM      3  C   UNL     1      -0.366   0.469   0.919  0.00  0.00    +0.043 A 
ATOM      4  C   UNL     1       0.927   0.218   1.387  0.00  0.00    +0.106 A 
ATOM      5  C   UNL     1       1.415  -1.090   1.393  0.00  0.00    +0.032 A 
ATOM      6  C   UNL     1       0.615  -2.142   0.940  0.00  0.00    +0.048 A 
ENDROOT
BRANCH   2   7
ATOM      7  C   UNL     1      -2.579  -0.281   0.027  0.00  0.00    +0.146 A 
ATOM      8  N   UNL     1      -3.141  -1.020  -0.986  0.00  0.00    -0.189 NA
ATOM      9  C   UNL     1      -4.411  -0.787  -1.432  0.00  0.00    +0.299 A 
ATOM     10  O   UNL     1      -4.901  -1.490  -2.353  0.00  0.00    -0.263 OA
ATOM     11  C   UNL     1      -5.127   0.243  -0.831  0.00  0.00    +0.151 A 
ATOM     12  C   UNL     1      -4.561   0.960   0.169  0.00  0.00    +0.095 A 
ATOM     13  N   UNL     1      -3.305   0.725   0.619  0.00  0.00    -0.336 N 
ATOM     14  C   UNL     1      -5.518   1.860   0.585  0.00  0.00    +0.087 A 
ATOM     15  N   UNL     1      -6.627   1.678  -0.176  0.00  0.00    -0.174 NA
ATOM     16  N   UNL     1      -6.381   0.695  -1.038  0.00  0.00    -0.260 N 
ATOM     17  C   UNL     1      -7.367   0.183  -1.983  0.00  0.00    +0.173 C 
ATOM     18  H   UNL     1      -2.927   1.281   1.416  0.00  0.00    +0.167 HD
BRANCH  14  19
ATOM     19  C   UNL     1      -5.386   2.893   1.663  0.00  0.00    +0.059 C 
BRANCH  19  20
ATOM     20  C   UNL     1      -4.802   4.207   1.121  0.00  0.00    +0.003 C 
ATOM     21  C   UNL     1      -5.825   4.994   0.297  0.00  0.00    +0.004 C 
ENDBRANCH  19  20
ENDBRANCH  14  19
ENDBRANCH   2   7
BRANCH   4  22
ATOM     22  S   UNL     1       1.930   1.551   1.963  0.00  0.00    +0.058 S 
ATOM     23  O   UNL     1       2.860   1.066   3.040  0.00  0.00    -0.153 OA
ATOM     24  O   UNL     1       1.037   2.599   2.565  0.00  0.00    -0.153 OA
BRANCH  22  25
ATOM     25  N   UNL     1       2.840   2.276   0.666  0.00  0.00    -0.190 NA
ATOM     26  H   UNL     1       2.136   2.715   0.031  0.00  0.00    +0.148 HD
BRANCH  25  27
ATOM     27  C   UNL     1       3.586   1.286  -0.121  0.00  0.00    +0.107 C 
BRANCH  27  28
ATOM     28  C   UNL     1       4.815   0.769   0.645  0.00  0.00    +0.035 C 
BRANCH  28  29
ATOM     29  C   UNL     1       5.795   0.002  -0.270  0.00  0.00    +0.058 C 
ATOM     30  C   UNL     1       6.978  -0.538   0.529  0.00  0.00    +0.020 C 
ATOM     31  C   UNL     1       8.061   0.513   0.392  0.00  0.00    +0.017 C 
ATOM     32  C   UNL     1       7.609   1.431  -0.739  0.00  0.00    +0.084 C 
ATOM     33  N   UNL     1       6.349   0.907  -1.294  0.00  0.00    -0.302 NA
ATOM     34  C   UNL     1       6.595   0.183  -2.552  0.00  0.00    +0.105 C 
ENDBRANCH  28  29
ENDBRANCH  27  28
ENDBRANCH  25  27
ENDBRANCH  22  25
ENDBRANCH   4  22
BRANCH   1  35
ATOM     35  O   UNL     1      -1.522  -2.952   0.046  0.00  0.00    -0.491 OA
BRANCH  35  36
ATOM     36  C   UNL     1      -1.160  -4.332   0.049  0.00  0.00    +0.229 C 
BRANCH  36  38
ATOM     37  C   UNL     1      -1.951  -6.636  -0.599  0.00  0.00    +0.007 C 
ATOM     38  C   UNL     1      -2.311  -5.156  -0.519  0.00  0.00    +0.038 C 
ENDBRANCH  36  38
ENDBRANCH  35  36
ENDBRANCH   1  35
TORSDOF 11
