REMARK  Name = 
REMARK  5 active torsions:
REMARK  status: ('A' for Active; 'I' for Inactive)
REMARK    1  A    between atoms: C_2  and  C_3
REMARK    2  A    between atoms: C_3  and  N_4
REMARK    3  A    between atoms: N_4  and  C_5
REMARK    4  A    between atoms: N_4  and  C_8
REMARK    5  A    between atoms: C_5  and  C_6
REMARK                            x       y       z     vdW  Elec       q    Type
REMARK                         _______ _______ _______ _____ _____    ______ ____
ROOT
ATOM      1  C   UNL     1       0.580  -0.234   0.029  0.00  0.00    +0.111 A 
ATOM      2  C   UNL     1       1.294  -0.480   1.206  0.00  0.00    +0.116 A 
ATOM      3  N   UNL     1       2.600  -0.846   1.150  0.00  0.00    -0.313 N 
ATOM      4  C   UNL     1       3.236  -0.981  -0.045  0.00  0.00    +0.327 A 
ATOM      5  O   UNL     1       4.450  -1.320  -0.077  0.00  0.00    -0.247 OA
ATOM      6  N   UNL     1       2.564  -0.751  -1.206  0.00  0.00    -0.274 N 
ATOM      7  C   UNL     1       1.253  -0.385  -1.194  0.00  0.00    +0.275 A 
ATOM      8  O   UNL     1       0.647  -0.202  -2.284  0.00  0.00    -0.266 OA
ATOM      9  H   UNL     1       3.119  -1.022   2.040  0.00  0.00    +0.170 HD
ATOM     10  H   UNL     1       3.060  -0.862  -2.119  0.00  0.00    +0.173 HD
ENDROOT
BRANCH   1  11
ATOM     11  N   UNL     1      -0.802   0.168   0.089  0.00  0.00    -0.322 N 
BRANCH  11  12
ATOM     12  C   UNL     1      -1.210   1.490  -0.406  0.00  0.00    +0.121 C 
BRANCH  12  14
ATOM     13 CL   UNL     1      -1.165   4.190  -0.106  0.00  0.00    -0.124 Cl
ATOM     14  C   UNL     1      -0.611   2.595   0.461  0.00  0.00    +0.127 C 
ENDBRANCH  12  14
ENDBRANCH  11  12
BRANCH  11  15
ATOM     15  C   UNL     1      -1.800  -0.731   0.683  0.00  0.00    +0.121 C 
BRANCH  15  16
ATOM     16  C   UNL     1      -2.586  -1.468  -0.401  0.00  0.00    +0.127 C 
ATOM     17 CL   UNL     1      -1.555  -2.647  -1.252  0.00  0.00    -0.124 Cl
ENDBRANCH  15  16
ENDBRANCH  11  15
ENDBRANCH   1  11
TORSDOF 5
