REMARK  Name = 
REMARK  10 active torsions:
REMARK  status: ('A' for Active; 'I' for Inactive)
REMARK    1  A    between atoms: C_1  and  C_22
REMARK    2  A    between atoms: C_6  and  O_7
REMARK    3  A    between atoms: C_11  and  O_12
REMARK    4  A    between atoms: C_15  and  C_16
REMARK    5  A    between atoms: C_20  and  C_21
REMARK    6  A    between atoms: C_22  and  C_23
REMARK    7  A    between atoms: C_22  and  C_24
REMARK    8  A    between atoms: C_24  and  C_25
REMARK    9  A    between atoms: C_25  and  C_26
REMARK   10  A    between atoms: C_26  and  O_27
REMARK                            x       y       z     vdW  Elec       q    Type
REMARK                         _______ _______ _______ _____ _____    ______ ____
ROOT
ATOM      1  C   UNL     1      -2.226   0.699   1.261  0.00  0.00    -0.002 C 
ATOM      2  C   UNL     1      -2.154  -0.333   2.417  0.00  0.00    +0.004 C 
ATOM      3  C   UNL     1      -0.824  -1.085   2.243  0.00  0.00    +0.005 C 
ATOM      4  C   UNL     1      -0.110  -0.352   1.112  0.00  0.00    +0.001 C 
ATOM      5  C   UNL     1       1.030  -1.052   0.329  0.00  0.00    +0.025 C 
ATOM      6  C   UNL     1       2.111  -1.622   1.278  0.00  0.00    +0.118 C 
ATOM      7  C   UNL     1       3.316  -2.163   0.493  0.00  0.00    +0.035 C 
ATOM      8  C   UNL     1       3.931  -1.127  -0.469  0.00  0.00    +0.000 C 
ATOM      9  C   UNL     1       4.673  -0.021   0.327  0.00  0.00    +0.035 C 
ATOM     10  C   UNL     1       5.326   1.021  -0.604  0.00  0.00    +0.115 C 
ATOM     11  C   UNL     1       4.270   1.626  -1.531  0.00  0.00    +0.032 C 
ATOM     12  C   UNL     1       3.566   0.534  -2.348  0.00  0.00    +0.010 C 
ATOM     13  C   UNL     1       2.866  -0.555  -1.471  0.00  0.00    -0.026 C 
ATOM     14  C   UNL     1       2.417  -1.675  -2.451  0.00  0.00    +0.012 C 
ATOM     15  C   UNL     1       1.636   0.011  -0.659  0.00  0.00    +0.001 C 
ATOM     16  C   UNL     1       0.544   0.681  -1.550  0.00  0.00    +0.005 C 
ATOM     17  C   UNL     1      -0.648   1.227  -0.735  0.00  0.00    +0.007 C 
ATOM     18  C   UNL     1      -1.240   0.148   0.198  0.00  0.00    -0.026 C 
ATOM     19  C   UNL     1      -1.898  -0.993  -0.638  0.00  0.00    +0.012 C 
ENDROOT
BRANCH   6  20
ATOM     20  O   UNL     1       1.570  -2.679   2.029  0.00  0.00    -0.391 OA
ATOM     21  H   UNL     1       2.127  -2.765   2.847  0.00  0.00    +0.210 HD
ENDBRANCH   6  20
BRANCH  10  22
ATOM     22  O   UNL     1       5.940   2.068   0.110  0.00  0.00    -0.392 OA
ATOM     23  H   UNL     1       6.220   1.744   1.001  0.00  0.00    +0.210 HD
ENDBRANCH  10  22
BRANCH   1  24
ATOM     24  C   UNL     1      -3.657   1.140   0.760  0.00  0.00    -0.010 C 
ATOM     25  C   UNL     1      -4.072   2.441   1.466  0.00  0.00    +0.008 C 
BRANCH  24  26
ATOM     26  C   UNL     1      -4.757   0.047   0.918  0.00  0.00    +0.014 C 
BRANCH  26  27
ATOM     27  C   UNL     1      -6.101   0.367   0.236  0.00  0.00    +0.121 C 
BRANCH  27  28
ATOM     28  C   UNL     1      -6.038   0.464  -1.260  0.00  0.00    +0.305 C 
ATOM     29  O   UNL     1      -5.084  -0.040  -1.911  0.00  0.00    -0.251 OA
BRANCH  28  30
ATOM     30  O   UNL     1      -7.107   1.041  -1.939  0.00  0.00    -0.481 OA
ATOM     31  H   UNL     1      -7.098   1.108  -2.951  0.00  0.00    +0.295 HD
ENDBRANCH  28  30
ENDBRANCH  27  28
ENDBRANCH  26  27
ENDBRANCH  24  26
ENDBRANCH   1  24
TORSDOF 7
