REMARK  Name = 
REMARK  11 active torsions:
REMARK  status: ('A' for Active; 'I' for Inactive)
REMARK    1  A    between atoms: C_1  and  C_2
REMARK    2  A    between atoms: C_2  and  C_3
REMARK    3  A    between atoms: C_2  and  C_4
REMARK    4  A    between atoms: C_4  and  N_5
REMARK    5  A    between atoms: C_4  and  C_6
REMARK    6  A    between atoms: C_6  and  O_8
REMARK    7  A    between atoms: O_8  and  C_9
REMARK    8  A    between atoms: C_9  and  C_10
REMARK    9  A    between atoms: C_10  and  O_11
REMARK   10  A    between atoms: O_11  and  C_12
REMARK   11  A    between atoms: C_12  and  N_13
REMARK                            x       y       z     vdW  Elec       q    Type
REMARK                         _______ _______ _______ _____ _____    ______ ____
ROOT
ATOM      1  C   UNL     1      -3.222   1.275  -1.425  0.00  0.00    +0.287 C 
ENDROOT
BRANCH   1   2
ATOM      2  N   UNL     1      -3.280   2.307  -0.386  0.00  0.00    -0.292 N 
ATOM      3  C   UNL     1      -3.633   3.611  -0.553  0.00  0.00    +0.203 A 
ATOM      4  N   UNL     1      -3.517   4.351   0.582  0.00  0.00    -0.229 NA
ATOM      5  C   UNL     1      -3.092   3.447   1.486  0.00  0.00    +0.172 A 
ATOM      6  C   UNL     1      -2.947   2.231   0.910  0.00  0.00    +0.148 A 
ATOM      7  N   UNL     1      -2.483   1.150   1.596  0.00  0.00    -0.312 N 
ATOM      8  C   UNL     1      -2.191   1.307   2.927  0.00  0.00    +0.195 A 
ATOM      9  N   UNL     1      -1.728   0.196   3.698  0.00  0.00    -0.329 N 
ATOM     10  N   UNL     1      -2.344   2.531   3.530  0.00  0.00    -0.176 NA
ATOM     11  C   UNL     1      -2.780   3.619   2.827  0.00  0.00    +0.302 A 
ATOM     12  O   UNL     1      -2.881   4.745   3.380  0.00  0.00    -0.263 OA
ATOM     13  H   UNL     1      -2.364   0.221   1.133  0.00  0.00    +0.170 HD
ATOM     14  H   UNL     1      -1.619   0.283   4.730  0.00  0.00    +0.145 HD
ATOM     15  H   UNL     1      -1.522  -0.721   3.245  0.00  0.00    +0.145 HD
ENDBRANCH   1   2
BRANCH   1  16
ATOM     16  O   UNL     1      -2.153   1.517  -2.325  0.00  0.00    -0.356 OA
BRANCH  16  17
ATOM     17  C   UNL     1      -0.902   1.235  -1.722  0.00  0.00    +0.203 C 
BRANCH  17  18
ATOM     18  C   UNL     1      -0.509  -0.229  -1.907  0.00  0.00    +0.260 C 
BRANCH  18  19
ATOM     19  O   UNL     1       0.672  -0.478  -1.153  0.00  0.00    -0.461 OA
BRANCH  19  20
ATOM     20  C   UNL     1       1.164  -1.764  -0.903  0.00  0.00    +0.324 C 
ATOM     21  O   UNL     1       0.623  -2.773  -1.433  0.00  0.00    -0.249 OA
BRANCH  20  22
ATOM     22  C   UNL     1       2.355  -1.914   0.005  0.00  0.00    +0.163 C 
BRANCH  22  24
ATOM     23  C   UNL     1       4.888  -1.625   0.047  0.00  0.00    +0.009 C 
ATOM     24  C   UNL     1       3.668  -1.955  -0.825  0.00  0.00    +0.010 C 
ATOM     25  C   UNL     1       3.881  -3.300  -1.545  0.00  0.00    +0.009 C 
ENDBRANCH  22  24
BRANCH  22  26
ATOM     26  N   UNL     1       2.207  -3.106   0.847  0.00  0.00    -0.318 NA
ATOM     27  H   UNL     1       1.284  -3.046   1.341  0.00  0.00    +0.119 HD
ATOM     28  H   UNL     1       2.934  -3.066   1.598  0.00  0.00    +0.119 HD
ENDBRANCH  22  26
ENDBRANCH  20  22
ENDBRANCH  19  20
ENDBRANCH  18  19
ENDBRANCH  17  18
ENDBRANCH  16  17
ENDBRANCH   1  16
TORSDOF 9
