REMARK  Name = 
REMARK  13 active torsions:
REMARK  status: ('A' for Active; 'I' for Inactive)
REMARK    1  A    between atoms: C_1  and  C_2
REMARK    2  A    between atoms: C_2  and  C_3
REMARK    3  A    between atoms: C_2  and  C_4
REMARK    4  A    between atoms: C_4  and  N_5
REMARK    5  A    between atoms: C_4  and  C_6
REMARK    6  A    between atoms: C_6  and  O_8
REMARK    7  A    between atoms: O_8  and  C_9
REMARK    8  A    between atoms: C_9  and  C_10
REMARK    9  A    between atoms: C_10  and  C_11
REMARK   10  A    between atoms: C_10  and  O_13
REMARK   11  A    between atoms: C_11  and  O_12
REMARK   12  A    between atoms: O_13  and  C_14
REMARK   13  A    between atoms: C_14  and  N_15
REMARK                            x       y       z     vdW  Elec       q    Type
REMARK                         _______ _______ _______ _____ _____    ______ ____
ROOT
ATOM      1  O   UNL     1       1.664   1.518   0.061  0.00  0.00    -0.350 OA
ENDROOT
BRANCH   1   2
ATOM      2  C   UNL     1       0.555   0.632   0.100  0.00  0.00    +0.183 C 
BRANCH   2   3
ATOM      3  C   UNL     1      -0.735   1.469   0.104  0.00  0.00    +0.266 C 
BRANCH   3   4
ATOM      4  O   UNL     1      -1.887   0.647   0.286  0.00  0.00    -0.461 OA
BRANCH   4   5
ATOM      5  C   UNL     1      -2.731   0.241  -0.756  0.00  0.00    +0.324 C 
ATOM      6  O   UNL     1      -2.527   0.634  -1.938  0.00  0.00    -0.249 OA
BRANCH   5   7
ATOM      7  C   UNL     1      -3.924  -0.637  -0.466  0.00  0.00    +0.163 C 
BRANCH   7   9
ATOM      8  C   UNL     1      -6.440  -0.693  -0.100  0.00  0.00    +0.009 C 
ATOM      9  C   UNL     1      -5.196   0.204  -0.176  0.00  0.00    +0.010 C 
ATOM     10  C   UNL     1      -5.085   1.063   1.095  0.00  0.00    +0.009 C 
ENDBRANCH   7   9
BRANCH   7  11
ATOM     11  N   UNL     1      -3.642  -1.586   0.619  0.00  0.00    -0.318 NA
ATOM     12  H   UNL     1      -2.864  -2.216   0.315  0.00  0.00    +0.119 HD
ATOM     13  H   UNL     1      -3.307  -1.077   1.468  0.00  0.00    +0.119 HD
ENDBRANCH   7  11
ENDBRANCH   5   7
ENDBRANCH   4   5
ENDBRANCH   3   4
ENDBRANCH   2   3
BRANCH   2  14
ATOM     14  C   UNL     1       0.642  -0.288  -1.125  0.00  0.00    +0.190 C 
BRANCH  14  15
ATOM     15  O   UNL     1      -0.228  -1.377  -0.981  0.00  0.00    -0.392 OA
ATOM     16  H   UNL     1      -0.146  -1.908  -1.815  0.00  0.00    +0.210 HD
ENDBRANCH  14  15
ENDBRANCH   2  14
ENDBRANCH   1   2
BRANCH   1  17
ATOM     17  C   UNL     1       2.321   1.581   1.312  0.00  0.00    +0.287 C 
BRANCH  17  18
ATOM     18  N   UNL     1       3.126   0.379   1.526  0.00  0.00    -0.292 N 
ATOM     19  C   UNL     1       2.999  -0.536   2.520  0.00  0.00    +0.203 A 
ATOM     20  N   UNL     1       3.888  -1.563   2.424  0.00  0.00    -0.229 NA
ATOM     21  C   UNL     1       4.584  -1.249   1.315  0.00  0.00    +0.172 A 
ATOM     22  C   UNL     1       4.133  -0.092   0.779  0.00  0.00    +0.148 A 
ATOM     23  N   UNL     1       4.658   0.443  -0.352  0.00  0.00    -0.312 N 
ATOM     24  C   UNL     1       5.688  -0.224  -0.963  0.00  0.00    +0.195 A 
ATOM     25  N   UNL     1       6.275   0.298  -2.154  0.00  0.00    -0.329 N 
ATOM     26  N   UNL     1       6.160  -1.400  -0.433  0.00  0.00    -0.176 NA
ATOM     27  C   UNL     1       5.625  -1.934   0.704  0.00  0.00    +0.302 A 
ATOM     28  O   UNL     1       6.065  -3.015   1.176  0.00  0.00    -0.263 OA
ATOM     29  H   UNL     1       4.288   1.336  -0.746  0.00  0.00    +0.170 HD
ATOM     30  H   UNL     1       5.935   1.195  -2.567  0.00  0.00    +0.145 HD
ATOM     31  H   UNL     1       7.060  -0.208  -2.620  0.00  0.00    +0.145 HD
ENDBRANCH  17  18
ENDBRANCH   1  17
TORSDOF 11
