REMARK  Name = 
REMARK  8 active torsions:
REMARK  status: ('A' for Active; 'I' for Inactive)
REMARK    1  A    between atoms: C_1  and  C_2
REMARK    2  A    between atoms: C_2  and  C_3
REMARK    3  A    between atoms: C_3  and  C_4
REMARK    4  A    between atoms: C_4  and  C_5
REMARK    5  A    between atoms: C_4  and  C_8
REMARK    6  A    between atoms: C_5  and  C_6
REMARK    7  A    between atoms: C_6  and  C_7
REMARK    8  A    between atoms: C_8  and  O_9
REMARK                            x       y       z     vdW  Elec       q    Type
REMARK                         _______ _______ _______ _____ _____    ______ ____
ROOT
ATOM      1  C   UNL     1      -0.305  -0.656  -0.701  0.00  0.00    +0.098 C 
ENDROOT
BRANCH   1   2
ATOM      2  C   UNL     1      -0.306  -1.863  -1.603  0.00  0.00    +0.308 C 
ATOM      3  O   UNL     1      -0.545  -1.733  -2.834  0.00  0.00    -0.251 OA
BRANCH   2   4
ATOM      4  O   UNL     1      -0.044  -3.126  -1.079  0.00  0.00    -0.480 OA
ATOM      5  H   UNL     1      -0.041  -3.946  -1.675  0.00  0.00    +0.295 HD
ENDBRANCH   2   4
ENDBRANCH   1   2
BRANCH   1   6
ATOM      6  C   UNL     1       1.099  -0.480  -0.057  0.00  0.00    +0.014 C 
BRANCH   6   8
ATOM      7  C   UNL     1       2.950   1.127   0.560  0.00  0.00    +0.004 C 
ATOM      8  C   UNL     1       1.587   0.977  -0.109  0.00  0.00    -0.003 C 
ENDBRANCH   6   8
ENDBRANCH   1   6
BRANCH   1   9
ATOM      9  C   UNL     1      -1.432  -0.824   0.348  0.00  0.00    +0.014 C 
BRANCH   9  10
ATOM     10  C   UNL     1      -1.669   0.402   1.247  0.00  0.00    -0.003 C 
ATOM     11  C   UNL     1      -2.237   1.600   0.486  0.00  0.00    +0.004 C 
ENDBRANCH   9  10
ENDBRANCH   1   9
TORSDOF 6
