REMARK  Name = 
REMARK  19 active torsions:
REMARK  status: ('A' for Active; 'I' for Inactive)
REMARK    1  A    between atoms: C_1  and  C_2
REMARK    2  A    between atoms: C_2  and  C_3
REMARK    3  A    between atoms: C_3  and  C_4
REMARK    4  A    between atoms: C_4  and  C_5
REMARK    5  A    between atoms: C_5  and  O_7
REMARK    6  A    between atoms: O_7  and  C_8
REMARK    7  A    between atoms: C_8  and  C_9
REMARK    8  A    between atoms: C_9  and  C_11
REMARK    9  A    between atoms: C_11  and  O_12
REMARK   10  A    between atoms: C_14  and  O_15
REMARK   11  A    between atoms: O_15  and  C_16
REMARK   12  A    between atoms: C_18  and  N_19
REMARK   13  A    between atoms: C_20  and  C_22
REMARK   14  A    between atoms: C_26  and  O_27
REMARK   15  A    between atoms: C_28  and  C_29
REMARK   16  A    between atoms: C_34  and  O_35
REMARK   17  A    between atoms: C_44  and  O_45
REMARK   18  A    between atoms: C_46  and  O_47
REMARK   19  A    between atoms: O_47  and  C_48
REMARK                            x       y       z     vdW  Elec       q    Type
REMARK                         _______ _______ _______ _____ _____    ______ ____
ROOT
ATOM      1  C   UNL     1       2.304  -0.354   0.070  0.00  0.00    +0.134 C 
ATOM      2  C   UNL     1       1.033  -0.807  -0.728  0.00  0.00    +0.079 C 
ATOM      3  C   UNL     1      -0.283  -0.541   0.024  0.00  0.00    +0.158 C 
ATOM      4  C   UNL     1      -0.381   0.961   0.292  0.00  0.00    +0.030 A 
ATOM      5  C   UNL     1       0.800   1.618   0.696  0.00  0.00    +0.007 A 
ATOM      6  C   UNL     1       1.961   0.738   1.121  0.00  0.00    +0.082 C 
ATOM      7  C   UNL     1       0.824   3.026   0.802  0.00  0.00    +0.132 A 
ATOM      8  C   UNL     1      -0.376   3.763   0.670  0.00  0.00    +0.078 A 
ATOM      9  C   UNL     1      -0.383   5.253   0.774  0.00  0.00    +0.198 C 
ATOM     10  O   UNL     1       0.663   5.880   1.099  0.00  0.00    -0.286 OA
ATOM     11  C   UNL     1      -1.619   6.016   0.486  0.00  0.00    +0.037 A 
ATOM     12  C   UNL     1      -2.844   5.336   0.334  0.00  0.00    +0.075 A 
ATOM     13  C   UNL     1      -2.862   3.863   0.500  0.00  0.00    +0.202 C 
ATOM     14  O   UNL     1      -3.939   3.287   0.816  0.00  0.00    -0.286 OA
ATOM     15  C   UNL     1      -1.593   3.088   0.426  0.00  0.00    +0.078 A 
ATOM     16  C   UNL     1      -1.582   1.695   0.164  0.00  0.00    +0.134 A 
ATOM     17  C   UNL     1      -4.024   6.067   0.055  0.00  0.00    +0.132 A 
ATOM     18  C   UNL     1      -3.957   7.469  -0.056  0.00  0.00    +0.046 A 
ATOM     19  C   UNL     1      -2.743   8.134   0.106  0.00  0.00    +0.004 A 
ATOM     20  C   UNL     1      -1.581   7.415   0.373  0.00  0.00    +0.012 A 
ENDROOT
BRANCH   1  21
ATOM     21  C   UNL     1       2.966  -1.527   0.803  0.00  0.00    +0.202 C 
ATOM     22  O   UNL     1       2.374  -2.589   0.935  0.00  0.00    -0.291 OA
BRANCH  21  23
ATOM     23  C   UNL     1       4.313  -1.371   1.460  0.00  0.00    +0.309 C 
BRANCH  23  24
ATOM     24  O   UNL     1       5.293  -1.013   0.492  0.00  0.00    -0.457 OA
BRANCH  24  25
ATOM     25  C   UNL     1       6.623  -0.746   0.828  0.00  0.00    +0.307 C 
ATOM     26  O   UNL     1       7.024  -0.871   2.018  0.00  0.00    -0.251 OA
BRANCH  25  27
ATOM     27  C   UNL     1       7.584  -0.334  -0.244  0.00  0.00    +0.120 C 
BRANCH  27  28
ATOM     28  C   UNL     1       7.970  -1.511  -1.155  0.00  0.00    +0.011 C 
BRANCH  28  30
ATOM     29  C   UNL     1      10.003  -2.281   0.191  0.00  0.00    +0.004 C 
ATOM     30  C   UNL     1       8.662  -2.676  -0.427  0.00  0.00    -0.003 C 
ENDBRANCH  28  30
ENDBRANCH  27  28
ENDBRANCH  25  27
ENDBRANCH  24  25
ENDBRANCH  23  24
ENDBRANCH  21  23
ENDBRANCH   1  21
BRANCH   1  31
ATOM     31  O   UNL     1       3.223   0.202  -0.840  0.00  0.00    -0.381 OA
ATOM     32  H   UNL     1       3.457  -0.503  -1.500  0.00  0.00    +0.211 HD
ENDBRANCH   1  31
BRANCH   7  33
ATOM     33  O   UNL     1       2.019   3.719   1.027  0.00  0.00    -0.506 OA
ATOM     34  H   UNL     1       2.942   3.325   0.919  0.00  0.00    +0.292 HD
ENDBRANCH   7  33
BRANCH  16  35
ATOM     35  O   UNL     1      -2.742   1.030  -0.244  0.00  0.00    -0.506 OA
ATOM     36  H   UNL     1      -3.551   1.496  -0.630  0.00  0.00    +0.292 HD
ENDBRANCH  16  35
BRANCH  17  37
ATOM     37  O   UNL     1      -5.237   5.378  -0.116  0.00  0.00    -0.494 OA
ATOM     38  C   UNL     1      -6.489   5.996  -0.396  0.00  0.00    +0.277 C 
ENDBRANCH  17  37
BRANCH   3  39
ATOM     39  O   UNL     1      -1.349  -0.999  -0.796  0.00  0.00    -0.343 OA
BRANCH  39  40
ATOM     40  C   UNL     1      -1.989  -2.130  -0.235  0.00  0.00    +0.253 C 
ATOM     41  C   UNL     1      -3.253  -2.414  -1.055  0.00  0.00    +0.086 C 
ATOM     42  C   UNL     1      -3.970  -3.647  -0.501  0.00  0.00    +0.109 C 
ATOM     43  C   UNL     1      -2.985  -4.826  -0.432  0.00  0.00    +0.163 C 
ATOM     44  C   UNL     1      -1.670  -4.416   0.283  0.00  0.00    +0.148 C 
ATOM     45  C   UNL     1      -1.787  -4.330   1.816  0.00  0.00    +0.041 C 
ATOM     46  O   UNL     1      -1.102  -3.241  -0.280  0.00  0.00    -0.346 OA
BRANCH  42  47
ATOM     47  N   UNL     1      -5.111  -3.984  -1.360  0.00  0.00    -0.302 N 
ATOM     48  C   UNL     1      -6.424  -3.446  -1.143  0.00  0.00    +0.318 C 
ATOM     49  O   UNL     1      -6.660  -2.728  -0.133  0.00  0.00    -0.266 OA
ATOM     50  H   UNL     1      -4.933  -4.507  -2.249  0.00  0.00    +0.149 HD
BRANCH  48  51
ATOM     51  C   UNL     1      -7.514  -3.714  -2.136  0.00  0.00    +0.469 C 
ATOM     52  F   UNL     1      -8.732  -3.271  -1.651  0.00  0.00    -0.162 F 
ATOM     53  F   UNL     1      -7.596  -5.072  -2.382  0.00  0.00    -0.162 F 
ATOM     54  F   UNL     1      -7.231  -3.055  -3.317  0.00  0.00    -0.162 F 
ENDBRANCH  48  51
ENDBRANCH  42  47
BRANCH  43  55
ATOM     55  O   UNL     1      -3.593  -5.912   0.218  0.00  0.00    -0.387 OA
ATOM     56  H   UNL     1      -3.042  -6.712   0.015  0.00  0.00    +0.210 HD
ENDBRANCH  43  55
ENDBRANCH  39  40
ENDBRANCH   3  39
TORSDOF 16
