REMARK  Name = 
REMARK  14 active torsions:
REMARK  status: ('A' for Active; 'I' for Inactive)
REMARK    1  A    between atoms: C_1  and  C_2
REMARK    2  A    between atoms: C_2  and  C_3
REMARK    3  A    between atoms: C_3  and  C_4
REMARK    4  A    between atoms: C_4  and  C_5
REMARK    5  A    between atoms: N_7  and  C_8
REMARK    6  A    between atoms: N_7  and  C_26
REMARK    7  A    between atoms: C_8  and  C_9
REMARK    8  A    between atoms: C_12  and  C_15
REMARK    9  A    between atoms: C_20  and  C_21
REMARK   10  A    between atoms: C_26  and  C_27
REMARK   11  A    between atoms: C_26  and  C_30
REMARK   12  A    between atoms: C_27  and  C_28
REMARK   13  A    between atoms: C_27  and  C_29
REMARK   14  A    between atoms: C_30  and  O_31
REMARK                            x       y       z     vdW  Elec       q    Type
REMARK                         _______ _______ _______ _____ _____    ______ ____
ROOT
ATOM      1  C   UNL     1       0.753  -0.338   0.709  0.00  0.00    -0.030 A 
ATOM      2  C   UNL     1       1.699  -1.256   0.228  0.00  0.00    +0.006 A 
ATOM      3  C   UNL     1       2.919  -0.809  -0.286  0.00  0.00    +0.009 A 
ATOM      4  C   UNL     1       3.208   0.566  -0.324  0.00  0.00    -0.017 A 
ATOM      5  C   UNL     1       2.249   1.486   0.129  0.00  0.00    +0.009 A 
ATOM      6  C   UNL     1       1.030   1.036   0.643  0.00  0.00    +0.006 A 
ENDROOT
BRANCH   4   7
ATOM      7  C   UNL     1       4.496   1.046  -0.876  0.00  0.00    -0.007 A 
ATOM      8  C   UNL     1       4.461   1.910  -1.985  0.00  0.00    +0.009 A 
ATOM      9  C   UNL     1       5.642   2.333  -2.595  0.00  0.00    +0.001 A 
ATOM     10  C   UNL     1       6.874   1.896  -2.111  0.00  0.00    +0.001 A 
ATOM     11  C   UNL     1       6.930   1.046  -1.008  0.00  0.00    +0.012 A 
ATOM     12  C   UNL     1       5.753   0.625  -0.361  0.00  0.00    +0.030 A 
BRANCH  12  13
ATOM     13  C   UNL     1       5.879  -0.205   0.862  0.00  0.00    +0.205 A 
ATOM     14  N   UNL     1       6.949  -0.974   1.147  0.00  0.00    -0.133 NA
ATOM     15  N   UNL     1       6.666  -1.500   2.326  0.00  0.00    -0.176 N 
ATOM     16  N   UNL     1       5.493  -1.075   2.759  0.00  0.00    -0.049 NA
ATOM     17  N   UNL     1       4.974  -0.252   1.861  0.00  0.00    -0.108 NA
ATOM     18  H   UNL     1       7.286  -2.159   2.848  0.00  0.00    +0.214 HD
ENDBRANCH  12  13
ENDBRANCH   4   7
BRANCH   1  19
ATOM     19  C   UNL     1      -0.572  -0.811   1.238  0.00  0.00    +0.143 C 
BRANCH  19  22
ATOM     20  C   UNL     1      -2.389   0.536   0.120  0.00  0.00    +0.217 C 
ATOM     21  O   UNL     1      -2.577   1.088  -1.002  0.00  0.00    -0.276 OA
ATOM     22  N   UNL     1      -1.607  -0.676   0.201  0.00  0.00    -0.283 N 
BRANCH  20  23
ATOM     23  C   UNL     1      -2.950   1.180   1.365  0.00  0.00    +0.096 C 
BRANCH  23  24
ATOM     24  C   UNL     1      -4.353   1.756   1.125  0.00  0.00    +0.009 C 
BRANCH  24  26
ATOM     25  C   UNL     1      -6.321   2.929   2.188  0.00  0.00    +0.004 C 
ATOM     26  C   UNL     1      -4.915   2.381   2.408  0.00  0.00    -0.003 C 
ENDBRANCH  24  26
ENDBRANCH  23  24
ENDBRANCH  20  23
BRANCH  22  27
ATOM     27  C   UNL     1      -1.769  -1.753  -0.801  0.00  0.00    +0.187 C 
BRANCH  27  28
ATOM     28  C   UNL     1      -3.228  -2.292  -0.821  0.00  0.00    +0.014 C 
ATOM     29  C   UNL     1      -3.655  -2.753   0.581  0.00  0.00    +0.009 C 
ATOM     30  C   UNL     1      -3.384  -3.463  -1.807  0.00  0.00    +0.009 C 
ENDBRANCH  27  28
BRANCH  27  31
ATOM     31  C   UNL     1      -1.249  -1.303  -2.153  0.00  0.00    +0.326 C 
ATOM     32  O   UNL     1      -0.020  -1.418  -2.405  0.00  0.00    -0.249 OA
BRANCH  31  33
ATOM     33  O   UNL     1      -2.073  -0.718  -3.114  0.00  0.00    -0.479 OA
ATOM     34  H   UNL     1      -3.066  -0.567  -2.973  0.00  0.00    +0.295 HD
ENDBRANCH  31  33
ENDBRANCH  27  31
ENDBRANCH  22  27
ENDBRANCH  19  22
ENDBRANCH   1  19
TORSDOF 11
