REMARK  Name = 
REMARK  29 active torsions:
REMARK  status: ('A' for Active; 'I' for Inactive)
REMARK    1  A    between atoms: C_1  and  N_2
REMARK    2  A    between atoms: N_2  and  CA_3
REMARK    3  A    between atoms: CA_3  and  CB_4
REMARK    4  A    between atoms: CA_3  and  C_8
REMARK    5  A    between atoms: CB_4  and  CG_5
REMARK    6  A    between atoms: CG_5  and  CD1_6
REMARK    7  A    between atoms: CG_5  and  CD2_7
REMARK    8  A    between atoms: N_10  and  C_11
REMARK    9  A    between atoms: C_12  and  O_13
REMARK   10  A    between atoms: C_20  and  O_21
REMARK   11  A    between atoms: O_21  and  C_22
REMARK   12  A    between atoms: C_24  and  C_25
REMARK   13  A    between atoms: C_25  and  O_26
REMARK   14  A    between atoms: C_27  and  O_28
REMARK   15  A    between atoms: C_29  and  O_30
REMARK   16  A    between atoms: C_31  and  O_32
REMARK   17  A    between atoms: O_32  and  C_33
REMARK   18  A    between atoms: C_35  and  C_36
REMARK   19  A    between atoms: C_35  and  N_37
REMARK   20  A    between atoms: C_38  and  O_39
REMARK   21  A    between atoms: C_40  and  C_41
REMARK   22  A    between atoms: CA_51  and  CB_52
REMARK   23  A    between atoms: CB_52  and  CG_53
REMARK   24  A    between atoms: C_66  and  O_67
REMARK   25  A    between atoms: C_71  and  O_72
REMARK   26  A    between atoms: C_74  and  O_75
REMARK   27  A    between atoms: C_78  and  C_96
REMARK   28  A    between atoms: C_86  and  O_87
REMARK   29  A    between atoms: C_96  and  O_97
REMARK                            x       y       z     vdW  Elec       q    Type
REMARK                         _______ _______ _______ _____ _____    ______ ____
ROOT
ATOM      1  C   UNK A   2       4.999  -4.396   0.499  0.00  0.00    +0.192 C 
ATOM      2  C   UNK A   2       4.310  -5.174  -0.669  0.00  0.00    +0.174 C 
ATOM      3  C   UNK A   2       2.800  -4.982  -0.726  0.00  0.00    -0.015 A 
ATOM      4  C   UNK A   2       2.161  -4.491  -1.884  0.00  0.00    +0.010 A 
ATOM      5  C   UNK A   2       0.812  -4.147  -1.848  0.00  0.00    +0.048 A 
ATOM      6  C   UNK A   2       0.089  -4.258  -0.658  0.00  0.00    +0.147 A 
ATOM      7  O   UNK A   2      -1.142  -3.607  -0.542  0.00  0.00    -0.451 OA
ATOM      8  C   UNK A   2      -1.207  -2.222  -0.301  0.00  0.00    +0.174 A 
ATOM      9  C   UNK A   2      -2.430  -1.545  -0.450  0.00  0.00    +0.208 A 
ATOM     10  C   UNK A   2      -2.505  -0.166  -0.209  0.00  0.00    +0.174 A 
ATOM     11  C   UNK A   2      -1.337   0.538   0.128  0.00  0.00    +0.056 A 
ATOM     12  C   UNK A   2      -0.100  -0.113   0.247  0.00  0.00    -0.011 A 
ATOM     13  C   UNK A   2      -0.064  -1.503   0.091  0.00  0.00    +0.056 A 
ATOM     14  C   UNK A   2       1.151   0.680   0.609  0.00  0.00    +0.190 C 
ATOM     15  N   UNK A   2       2.389  -0.078   0.351  0.00  0.00    -0.299 N 
ATOM     16  C   ASN A   3       3.543   0.037   1.194  0.00  0.00    +0.235 C 
ATOM     17  O   ASN A   3       3.469   0.671   2.277  0.00  0.00    -0.274 OA
ATOM     18  CA  ASN A   3       4.875  -0.571   0.811  0.00  0.00    +0.168 C 
ATOM     19  N   ASN A   3       4.729  -1.852   0.102  0.00  0.00    -0.302 N 
ATOM     20  C   UNK A   2       4.386  -3.045   0.827  0.00  0.00    +0.237 C 
ATOM     21  O   UNK A   2       3.590  -2.965   1.799  0.00  0.00    -0.274 OA
ATOM     22  C   UNK A   2       1.204   1.960  -0.180  0.00  0.00    +0.239 C 
ATOM     23  O   ACE A   4       1.447   1.910  -1.419  0.00  0.00    -0.273 OA
ATOM     24  N   UNK A   5       0.904   3.216   0.450  0.00  0.00    -0.299 N 
ATOM     25  C   UNK A   5       0.832   4.474  -0.301  0.00  0.00    +0.190 C 
ATOM     26  C   UNK A   5       1.692   5.566   0.316  0.00  0.00    -0.018 A 
ATOM     27  C   UNK A   5       1.587   6.871  -0.188  0.00  0.00    +0.018 A 
ATOM     28  C   UNK A   5       2.360   7.910   0.335  0.00  0.00    +0.028 A 
ATOM     29  C   UNK A   5       3.290   7.646   1.360  0.00  0.00    +0.125 A 
ATOM     30  C   UNK A   5       3.433   6.343   1.835  0.00  0.00    +0.046 A 
ATOM     31  C   UNK A   5       2.650   5.304   1.315  0.00  0.00    +0.009 A 
ATOM     32  C   UNK A   5       2.140   9.272  -0.199  0.00  0.00    +0.033 A 
ATOM     33  C   UNK A   5       3.014   9.780  -1.189  0.00  0.00    +0.128 A 
ATOM     34  C   UNK A   5       2.721  10.990  -1.824  0.00  0.00    +0.091 A 
ATOM     35  C   UNK A   5       1.559  11.691  -1.508  0.00  0.00    +0.121 A 
ATOM     36  C   UNK A   5       0.695  11.205  -0.522  0.00  0.00    +0.052 A 
ATOM     37  C   UNK A   5       0.983  10.012   0.169  0.00  0.00    -0.002 A 
ATOM     38  C   UNK A   5       0.018   9.494   1.238  0.00  0.00    +0.213 C 
ATOM     39  N   UNK A   5      -1.065   8.713   0.630  0.00  0.00    -0.297 N 
ATOM     40  C   UNK A   6      -1.756   7.699   1.378  0.00  0.00    +0.237 C 
ATOM     41  O   UNK A   6      -1.756   7.750   2.638  0.00  0.00    -0.274 OA
ATOM     42  C   UNK A   6      -2.299   6.475   0.669  0.00  0.00    +0.192 C 
ATOM     43  N   UNK A   6      -1.299   5.405   0.765  0.00  0.00    -0.300 N 
ATOM     44  C   UNK A   5      -0.604   4.915  -0.390  0.00  0.00    +0.239 C 
ATOM     45  O   UNK A   5      -1.175   4.934  -1.519  0.00  0.00    -0.273 OA
ATOM     46  C   UNK A   6      -3.707   6.005   1.157  0.00  0.00    +0.174 C 
ATOM     47  C   UNK A   6      -3.944   4.540   0.818  0.00  0.00    -0.015 A 
ATOM     48  C   UNK A   6      -3.748   3.538   1.788  0.00  0.00    +0.030 A 
ATOM     49  C   UNK A   6      -3.776   2.186   1.432  0.00  0.00    +0.083 A 
ATOM     50 CL   UNK A   6      -3.544   0.975   2.688  0.00  0.00    -0.080 Cl
ATOM     51  C   UNK A   6      -3.938   1.820   0.085  0.00  0.00    +0.147 A 
ATOM     52  O   UNK A   2      -3.740   0.495  -0.328  0.00  0.00    -0.451 OA
ATOM     53  C   UNK A   6      -4.216   2.807  -0.870  0.00  0.00    +0.048 A 
ATOM     54  C   UNK A   6      -4.207   4.160  -0.508  0.00  0.00    +0.010 A 
ATOM     55  C   UNK A   2       0.671  -4.877   0.455  0.00  0.00    +0.083 A 
ATOM     56 CL   UNK A   2      -0.211  -5.022   1.967  0.00  0.00    -0.080 Cl
ATOM     57  C   UNK A   2       2.020  -5.245   0.411  0.00  0.00    +0.030 A 
ATOM     58  H   UNK A   2       2.487  -0.576  -0.562  0.00  0.00    +0.150 HD
ATOM     59  H   ASN A   3       5.079  -1.949  -0.878  0.00  0.00    +0.150 HD
ATOM     60  H   UNK A   5       0.643   3.219   1.462  0.00  0.00    +0.150 HD
ATOM     61  H   UNK A   7      -1.254   8.806  -0.395  0.00  0.00    +0.150 HD
ATOM     62  H   UNK A   6      -0.965   5.116   1.712  0.00  0.00    +0.150 HD
ENDROOT
BRANCH   1  65
ATOM     63  C   LEU A   1       7.381  -5.301   0.519  0.00  0.00    +0.231 C 
ATOM     64  O   LEU A   1       7.055  -6.258   1.277  0.00  0.00    -0.274 OA
ATOM     65  N   UNK A   2       6.436  -4.254   0.236  0.00  0.00    -0.300 N 
ATOM     66  H   UNK A   2       6.766  -3.444  -0.337  0.00  0.00    +0.150 HD
BRANCH  63  67
ATOM     67  CA  LEU A   1       8.761  -5.254  -0.098  0.00  0.00    +0.140 C 
BRANCH  67  69
ATOM     68  C   ACE A   0       8.593  -7.609  -0.875  0.00  0.00    +0.101 C 
ATOM     69  N   LEU A   1       8.916  -6.217  -1.209  0.00  0.00    -0.309 NA
ATOM     70  H   LEU A   1       8.292  -5.919  -1.996  0.00  0.00    +0.122 HD
ENDBRANCH  67  69
BRANCH  67  71
ATOM     71  CB  LEU A   1       9.866  -5.391   0.982  0.00  0.00    +0.031 C 
BRANCH  71  72
ATOM     72  CG  LEU A   1      11.326  -5.204   0.488  0.00  0.00    -0.015 C 
ATOM     73  CD1 LEU A   1      11.871  -6.433  -0.257  0.00  0.00    +0.007 C 
ATOM     74  CD2 LEU A   1      11.525  -3.926  -0.341  0.00  0.00    +0.007 C 
ENDBRANCH  71  72
ENDBRANCH  67  71
ENDBRANCH  63  67
ENDBRANCH   1  65
BRANCH   2  75
ATOM     75  O   UNK A   2       4.924  -4.904  -1.908  0.00  0.00    -0.385 OA
ATOM     76  H   UNK A   2       4.912  -3.928  -2.053  0.00  0.00    +0.210 HD
ENDBRANCH   2  75
BRANCH  29  77
ATOM     77  O   UNK A   5       4.075   8.657   1.920  0.00  0.00    -0.506 OA
ATOM     78  H   UNK A   5       4.008   9.625   1.627  0.00  0.00    +0.292 HD
ENDBRANCH  29  77
BRANCH  33  79
ATOM     79  O   UNK A   5       4.175   9.100  -1.570  0.00  0.00    -0.506 OA
ATOM     80  H   UNK A   5       4.466   8.227  -1.147  0.00  0.00    +0.292 HD
ENDBRANCH  33  79
BRANCH  35  81
ATOM     81  O   UNK A   5       1.262  12.867  -2.189  0.00  0.00    -0.507 OA
ATOM     82  H   UNK A   5       0.423  13.398  -1.994  0.00  0.00    +0.292 HD
ENDBRANCH  35  81
BRANCH  46  83
ATOM     83  O   UNK A   6      -3.865   6.216   2.539  0.00  0.00    -0.385 OA
ATOM     84  H   UNK A   6      -4.836   6.326   2.706  0.00  0.00    +0.210 HD
ENDBRANCH  46  83
BRANCH  38  85
ATOM     85  C   UNK A   5      -0.538  10.607   2.095  0.00  0.00    +0.330 C 
ATOM     86  O   UNK A   7      -1.600  11.202   1.762  0.00  0.00    -0.249 OA
BRANCH  85  87
ATOM     87  O   UNK A   7       0.148  11.021   3.237  0.00  0.00    -0.479 OA
ATOM     88  H   UNK A   7       1.014  10.576   3.515  0.00  0.00    +0.295 HD
ENDBRANCH  85  87
ENDBRANCH  38  85
BRANCH   9  89
ATOM     89  O   UNK A   2      -3.561  -2.252  -0.856  0.00  0.00    -0.453 OA
BRANCH  89  90
ATOM     90  C   UNK A   2      -4.495  -2.789   0.087  0.00  0.00    +0.340 C 
ATOM     91  O   UNK A   2      -3.778  -3.583   1.028  0.00  0.00    -0.331 OA
ATOM     92  C   UNK A   2      -4.619  -4.517   1.671  0.00  0.00    +0.179 C 
ATOM     93  C   UNK A   2      -4.994  -5.641   0.671  0.00  0.00    +0.177 C 
ATOM     94  C   UNK A   2      -5.269  -5.064  -0.746  0.00  0.00    +0.180 C 
ATOM     95  C   UNK A   2      -5.603  -3.559  -0.699  0.00  0.00    +0.220 C 
BRANCH  93  96
ATOM     96  O   UNK A   2      -6.095  -6.378   1.138  0.00  0.00    -0.386 OA
ATOM     97  H   UNK A   2      -6.839  -5.745   1.306  0.00  0.00    +0.210 HD
ENDBRANCH  93  96
BRANCH  94  98
ATOM     98  O   UNK A   2      -4.141  -5.245  -1.568  0.00  0.00    -0.386 OA
ATOM     99  H   UNK A   2      -4.136  -6.197  -1.846  0.00  0.00    +0.210 HD
ENDBRANCH  94  98
BRANCH  92 100
ATOM    100  C   UNK A   2      -3.901  -5.093   2.899  0.00  0.00    +0.190 C 
BRANCH 100 101
ATOM    101  O   UNK A   2      -3.590  -4.073   3.814  0.00  0.00    -0.392 OA
ATOM    102  H   UNK A   2      -4.455  -3.800   4.225  0.00  0.00    +0.210 HD
ENDBRANCH 100 101
ENDBRANCH  92 100
BRANCH  95 103
ATOM    103  O   UNK A   2      -6.841  -3.364  -0.031  0.00  0.00    -0.339 OA
BRANCH 103 104
ATOM    104  C   UNK A   2      -7.953  -3.197  -0.901  0.00  0.00    +0.253 C 
ATOM    105  C   UNK A   2      -8.824  -4.486  -0.896  0.00  0.00    +0.085 C 
ATOM    106  C   UNK A   2     -10.336  -4.157  -0.949  0.00  0.00    +0.047 C 
ATOM    107  C   UNK A   2     -11.145  -5.468  -0.828  0.00  0.00    +0.030 C 
ATOM    108  C   UNK A   2     -10.685  -3.199   0.248  0.00  0.00    +0.163 C 
ATOM    109  C   UNK A   2      -9.460  -2.324   0.654  0.00  0.00    +0.148 C 
ATOM    110  C   UNK A   2      -9.849  -1.015   1.348  0.00  0.00    +0.041 C 
ATOM    111  O   UNK A   2      -8.675  -2.044  -0.490  0.00  0.00    -0.346 OA
BRANCH 106 112
ATOM    112  N   UNK A   2     -10.636  -3.514  -2.241  0.00  0.00    -0.323 NA
ATOM    113  H   UNK A   2     -10.288  -4.118  -3.023  0.00  0.00    +0.119 HD
ATOM    114  H   UNK A   2     -11.674  -3.447  -2.368  0.00  0.00    +0.119 HD
ENDBRANCH 106 112
BRANCH 108 115
ATOM    115  O   UNK A   2     -11.831  -2.430  -0.031  0.00  0.00    -0.387 OA
ATOM    116  H   UNK A   2     -11.589  -1.747  -0.708  0.00  0.00    +0.210 HD
ENDBRANCH 108 115
ENDBRANCH 103 104
ENDBRANCH  95 103
ENDBRANCH  89  90
ENDBRANCH   9  89
BRANCH  18 117
ATOM    117  CB  ASN A   3       5.779   0.425   0.050  0.00  0.00    +0.127 C 
BRANCH 117 118
ATOM    118  CG  ASN A   3       5.472   0.599  -1.412  0.00  0.00    +0.213 C 
ATOM    119  ND2 ASN A   3       4.163   0.971  -1.843  0.00  0.00    -0.329 N 
ATOM    120  OD1 ASN A   3       6.405   0.485  -2.258  0.00  0.00    -0.276 OA
ATOM    121 HD21 ASN A   3       3.958   1.143  -2.851  0.00  0.00    +0.145 HD
ATOM    122 HD22 ASN A   3       3.968   1.141  -2.852  0.00  0.00    +0.145 HD
ENDBRANCH 117 118
ENDBRANCH  18 117
TORSDOF 24
