REMARK  Name = 
REMARK  7 active torsions:
REMARK  status: ('A' for Active; 'I' for Inactive)
REMARK    1  A    between atoms: C_1  and  O_2
REMARK    2  A    between atoms: O_2  and  C_3
REMARK    3  A    between atoms: C_4  and  O_5
REMARK    4  A    between atoms: O_5  and  C_6
REMARK    5  A    between atoms: C_6  and  C_7
REMARK    6  A    between atoms: N_10  and  C_11
REMARK    7  A    between atoms: N_20  and  C_21
REMARK                            x       y       z     vdW  Elec       q    Type
REMARK                         _______ _______ _______ _____ _____    ______ ____
ROOT
ATOM      1  C   UNL     1       1.311  -2.158   2.107  0.00  0.00    +0.162 A 
ATOM      2  C   UNL     1       2.434  -2.593   1.435  0.00  0.00    +0.164 A 
ATOM      3  C   UNL     1       2.591  -3.995   1.492  0.00  0.00    +0.078 A 
ATOM      4  C   UNL     1       1.554  -4.861   1.957  0.00  0.00    +0.080 A 
ATOM      5  N   UNL     1       1.824  -6.198   2.065  0.00  0.00    -0.235 NA
ATOM      6  C   UNL     1       0.799  -6.950   2.482  0.00  0.00    +0.223 A 
ATOM      7  N   UNL     1      -0.477  -6.618   2.647  0.00  0.00    -0.220 NA
ATOM      8  C   UNL     1      -0.781  -5.302   2.516  0.00  0.00    +0.134 A 
ATOM      9  N   UNL     1      -2.123  -4.896   2.748  0.00  0.00    -0.297 N 
ATOM     10  C   UNL     1       0.309  -4.422   2.273  0.00  0.00    +0.044 A 
ATOM     11  C   UNL     1       0.201  -3.015   2.385  0.00  0.00    +0.062 A 
ATOM     12  H   UNL     1      -2.437  -4.078   2.236  0.00  0.00    +0.154 HD
ENDROOT
BRANCH   9  13
ATOM     13  C   UNL     1      -3.190  -5.764   3.114  0.00  0.00    +0.068 A 
ATOM     14  C   UNL     1      -3.136  -6.458   4.334  0.00  0.00    +0.145 A 
ATOM     15  F   UNL     1      -2.149  -6.193   5.202  0.00  0.00    -0.204 F 
ATOM     16  C   UNL     1      -4.106  -7.386   4.706  0.00  0.00    +0.055 A 
ATOM     17  C   UNL     1      -5.154  -7.661   3.836  0.00  0.00    +0.021 A 
ATOM     18 BR   UNL     1      -6.446  -8.956   4.317  0.00  0.00    -0.050 Br
ATOM     19  C   UNL     1      -5.247  -6.993   2.614  0.00  0.00    +0.017 A 
ATOM     20  C   UNL     1      -4.273  -6.039   2.257  0.00  0.00    +0.027 A 
ENDBRANCH   9  13
BRANCH   1  22
ATOM     21  C   UNL     1       1.218  -0.149   1.230  0.00  0.00    +0.277 C 
ATOM     22  O   UNL     1       0.991  -0.850   2.345  0.00  0.00    -0.491 OA
ENDBRANCH   1  22
BRANCH   2  23
ATOM     23  O   UNL     1       3.315  -1.918   0.580  0.00  0.00    -0.488 OA
BRANCH  23  24
ATOM     24  C   UNL     1       3.233  -0.490   0.166  0.00  0.00    +0.232 C 
BRANCH  24  25
ATOM     25  C   UNL     1       1.937   0.003  -1.103  0.00  0.00    +0.029 C 
ATOM     26  C   UNL     1       0.862   1.485  -0.669  0.00  0.00    +0.022 C 
ATOM     27  C   UNL     1      -0.492   1.396   0.641  0.00  0.00    +0.084 C 
ATOM     28  N   UNL     1      -1.343  -0.157   0.638  0.00  0.00    -0.305 NA
ATOM     29  C   UNL     1      -1.726  -0.455   2.119  0.00  0.00    +0.104 C 
ATOM     30  C   UNL     1      -0.577  -1.505  -0.225  0.00  0.00    +0.084 C 
ATOM     31  C   UNL     1       0.812  -1.385  -1.374  0.00  0.00    +0.022 C 
ENDBRANCH  24  25
ENDBRANCH  23  24
ENDBRANCH   2  23
TORSDOF 5
