REMARK  Name = 
REMARK  23 active torsions:
REMARK  status: ('A' for Active; 'I' for Inactive)
REMARK    1  A    between atoms: C_1  and  C_2
REMARK    2  A    between atoms: C_2  and  C_3
REMARK    3  A    between atoms: C_2  and  C_4
REMARK    4  A    between atoms: C_8  and  C_9
REMARK    5  A    between atoms: C_9  and  C_10
REMARK    6  A    between atoms: C_10  and  C_11
REMARK    7  A    between atoms: C_11  and  C_12
REMARK    8  A    between atoms: C_12  and  N_13
REMARK    9  A    between atoms: C_17  and  C_18
REMARK   10  A    between atoms: C_18  and  C_19
REMARK   11  A    between atoms: C_31  and  C_32
REMARK   12  A    between atoms: C_32  and  C_33
REMARK   13  A    between atoms: C_36  and  O_37
REMARK   14  A    between atoms: C_43  and  N_69
REMARK   15  A    between atoms: C_48  and  C_52
REMARK   16  A    between atoms: N_54  and  C_55
REMARK   17  A    between atoms: C_55  and  C_56
REMARK   18  A    between atoms: C_55  and  C_66
REMARK   19  A    between atoms: C_56  and  C_57
REMARK   20  A    between atoms: C_70  and  C_72
REMARK   21  A    between atoms: C_72  and  N_73
REMARK   22  A    between atoms: C_72  and  C_74
REMARK   23  A    between atoms: C_74  and  C_75
REMARK                            x       y       z     vdW  Elec       q    Type
REMARK                         _______ _______ _______ _____ _____    ______ ____
ROOT
ATOM      1  C   UNL     1       2.213  -4.503  -0.411  0.00  0.00    +0.161 C 
ATOM      2  N   UNL     1       1.215  -5.249   0.380  0.00  0.00    -0.302 N 
ATOM      3  C   UNL     1      -0.202  -5.044   0.294  0.00  0.00    +0.234 C 
ATOM      4  O   UNL     1      -0.817  -5.311  -0.765  0.00  0.00    -0.274 OA
ATOM      5  C   UNL     1      -0.994  -4.698   1.531  0.00  0.00    +0.159 C 
ATOM      6  N   UNL     1      -2.172  -3.905   1.177  0.00  0.00    -0.302 N 
ATOM      7  C   UNL     1      -2.043  -2.632   0.535  0.00  0.00    +0.234 C 
ATOM      8  O   UNL     1      -0.890  -2.137   0.371  0.00  0.00    -0.274 OA
ATOM      9  C   UNL     1      -3.256  -1.914  -0.006  0.00  0.00    +0.163 C 
ATOM     10  N   UNL     1      -2.987  -0.476  -0.064  0.00  0.00    -0.302 N 
ATOM     11  C   UNL     1      -3.757   0.472   0.681  0.00  0.00    +0.234 C 
ATOM     12  O   UNL     1      -5.016   0.365   0.724  0.00  0.00    -0.274 OA
ATOM     13  C   UNL     1      -3.067   1.491   1.550  0.00  0.00    +0.163 C 
ATOM     14  N   UNL     1      -1.841   1.973   0.897  0.00  0.00    -0.302 N 
ATOM     15  C   UNL     1      -1.917   2.998  -0.113  0.00  0.00    +0.235 C 
ATOM     16  O   UNL     1      -3.046   3.378  -0.532  0.00  0.00    -0.274 OA
ATOM     17  C   UNL     1      -0.673   3.630  -0.696  0.00  0.00    +0.169 C 
ATOM     18  C   UNL     1      -0.381   3.043  -2.103  0.00  0.00    +0.112 C 
ATOM     19  S   UNL     1       1.301   2.353  -2.235  0.00  0.00    -0.091 S 
ATOM     20  S   UNL     1       0.715   0.407  -1.561  0.00  0.00    -0.091 S 
ATOM     21  C   UNL     1       1.730   0.428  -0.028  0.00  0.00    +0.112 C 
ATOM     22  C   UNL     1       2.854  -0.628  -0.036  0.00  0.00    +0.169 C 
ATOM     23  N   UNL     1       2.369  -1.915  -0.539  0.00  0.00    -0.302 N 
ATOM     24  C   UNL     1       2.467  -3.133   0.209  0.00  0.00    +0.234 C 
ATOM     25  O   UNL     1       2.861  -3.093   1.417  0.00  0.00    -0.274 OA
ATOM     26  H   UNL     1       1.560  -5.688   1.255  0.00  0.00    +0.150 HD
ATOM     27  H   UNL     1      -3.132  -4.253   1.406  0.00  0.00    +0.150 HD
ATOM     28  H   UNL     1      -2.167  -0.136  -0.608  0.00  0.00    +0.150 HD
ATOM     29  H   UNL     1      -0.929   1.488   1.099  0.00  0.00    +0.150 HD
ATOM     30  H   UNL     1       2.191  -1.955  -1.566  0.00  0.00    +0.150 HD
ENDROOT
BRANCH  22  31
ATOM     31  C   UNL     1       4.038  -0.215  -0.874  0.00  0.00    +0.235 C 
ATOM     32  O   UNL     1       3.836   0.303  -2.002  0.00  0.00    -0.274 OA
ATOM     33  N   UNL     1       5.353  -0.707  -0.530  0.00  0.00    -0.302 N 
ATOM     34  H   UNL     1       5.389  -1.407   0.245  0.00  0.00    +0.150 HD
BRANCH  33  35
ATOM     35  C   UNL     1       6.597  -0.010  -0.917  0.00  0.00    +0.164 C 
BRANCH  35  36
ATOM     36  C   UNL     1       6.976  -0.362  -2.337  0.00  0.00    +0.231 C 
ATOM     37  N   UNL     1       5.965  -0.719  -3.273  0.00  0.00    -0.328 N 
ATOM     38  O   UNL     1       8.180  -0.350  -2.716  0.00  0.00    -0.274 OA
ATOM     39  H   UNL     1       5.990  -0.381  -4.266  0.00  0.00    +0.145 HD
ATOM     40  H   UNL     1       5.994  -0.380  -4.264  0.00  0.00    +0.145 HD
ENDBRANCH  35  36
BRANCH  35  41
ATOM     41  C   UNL     1       7.708  -0.385   0.091  0.00  0.00    +0.085 C 
BRANCH  41  42
ATOM     42  C   UNL     1       8.870   0.558   0.173  0.00  0.00    +0.019 A 
ATOM     43  C   UNL     1       9.867   0.442   1.135  0.00  0.00    +0.031 A 
ATOM     44  C   UNL     1      10.694   1.530   0.941  0.00  0.00    -0.000 A 
ATOM     45  C   UNL     1      11.826   1.943   1.632  0.00  0.00    +0.010 A 
ATOM     46  C   UNL     1      12.439   3.134   1.226  0.00  0.00    +0.001 A 
ATOM     47  C   UNL     1      11.911   3.882   0.148  0.00  0.00    +0.002 A 
ATOM     48  C   UNL     1      10.767   3.441  -0.538  0.00  0.00    +0.026 A 
ATOM     49  C   UNL     1      10.181   2.251  -0.108  0.00  0.00    +0.047 A 
ATOM     50  N   UNL     1       9.065   1.668  -0.590  0.00  0.00    -0.358 N 
ATOM     51  H   UNL     1       8.466   2.030  -1.360  0.00  0.00    +0.166 HD
ENDBRANCH  41  42
ENDBRANCH  35  41
ENDBRANCH  33  35
ENDBRANCH  22  31
BRANCH  17  52
ATOM     52  N   UNL     1      -0.892   5.075  -0.793  0.00  0.00    -0.302 N 
ATOM     53  C   UNL     1      -0.168   6.028  -0.018  0.00  0.00    +0.231 C 
ATOM     54  O   UNL     1       1.087   6.108  -0.157  0.00  0.00    -0.274 OA
ATOM     55  H   UNL     1      -1.665   5.414  -1.394  0.00  0.00    +0.150 HD
BRANCH  53  56
ATOM     56  C   UNL     1      -0.831   6.874   1.044  0.00  0.00    +0.142 C 
BRANCH  56  57
ATOM     57  N   UNL     1      -0.382   6.442   2.377  0.00  0.00    -0.320 NA
ATOM     58  H   UNL     1      -0.427   5.392   2.461  0.00  0.00    +0.119 HD
ATOM     59  H   UNL     1       0.605   6.738   2.526  0.00  0.00    +0.119 HD
ENDBRANCH  56  57
BRANCH  56  60
ATOM     60  C   UNL     1      -2.375   6.851   1.015  0.00  0.00    +0.063 C 
BRANCH  60  61
ATOM     61  C   UNL     1      -2.991   7.476  -0.217  0.00  0.00    -0.045 A 
ATOM     62  C   UNL     1      -3.992   6.794  -0.927  0.00  0.00    +0.004 A 
ATOM     63  C   UNL     1      -4.633   7.389  -2.013  0.00  0.00    +0.000 A 
ATOM     64  C   UNL     1      -4.284   8.681  -2.408  0.00  0.00    +0.000 A 
ATOM     65  C   UNL     1      -3.305   9.384  -1.699  0.00  0.00    +0.000 A 
ATOM     66  C   UNL     1      -2.674   8.794  -0.601  0.00  0.00    +0.004 A 
ENDBRANCH  60  61
ENDBRANCH  56  60
ENDBRANCH  53  56
ENDBRANCH  17  52
BRANCH   1  68
ATOM     67  C   UNL     1       0.780  -3.843  -2.538  0.00  0.00    +0.009 C 
ATOM     68  C   UNL     1       2.007  -4.603  -1.965  0.00  0.00    +0.012 C 
ATOM     69  C   UNL     1       3.286  -4.226  -2.736  0.00  0.00    +0.009 C 
ENDBRANCH   1  68
BRANCH   5  70
ATOM     70  C   UNL     1      -1.375  -5.973   2.338  0.00  0.00    +0.032 C 
BRANCH  70  71
ATOM     71  C   UNL     1      -2.021  -7.084   1.496  0.00  0.00    +0.003 C 
BRANCH  71  72
ATOM     72  C   UNL     1      -2.219  -8.375   2.303  0.00  0.00    +0.015 C 
BRANCH  72  73
ATOM     73  C   UNL     1      -2.454  -9.583   1.386  0.00  0.00    +0.077 C 
BRANCH  73  74
ATOM     74  N   UNL     1      -1.271  -9.845   0.567  0.00  0.00    -0.330 NA
ATOM     75  H   UNL     1      -1.492 -10.636  -0.083  0.00  0.00    +0.118 HD
ATOM     76  H   UNL     1      -0.492 -10.173   1.185  0.00  0.00    +0.118 HD
ENDBRANCH  73  74
ENDBRANCH  72  73
ENDBRANCH  71  72
ENDBRANCH  70  71
ENDBRANCH   5  70
BRANCH   9  77
ATOM     77  C   UNL     1      -3.588  -2.438  -1.407  0.00  0.00    +0.069 C 
BRANCH  77  78
ATOM     78  C   UNL     1      -4.849  -1.803  -1.927  0.00  0.00    -0.020 A 
ATOM     79  C   UNL     1      -6.149  -2.195  -1.630  0.00  0.00    +0.087 A 
ATOM     80  N   UNL     1      -7.039  -1.305  -2.130  0.00  0.00    -0.360 N 
ATOM     81  C   UNL     1      -6.305  -0.342  -2.718  0.00  0.00    +0.047 A 
ATOM     82  C   UNL     1      -4.969  -0.606  -2.612  0.00  0.00    +0.003 A 
ATOM     83  C   UNL     1      -4.009   0.270  -3.123  0.00  0.00    +0.010 A 
ATOM     84  C   UNL     1      -4.459   1.441  -3.761  0.00  0.00    +0.001 A 
ATOM     85  C   UNL     1      -5.838   1.707  -3.869  0.00  0.00    +0.002 A 
ATOM     86  C   UNL     1      -6.784   0.807  -3.344  0.00  0.00    +0.026 A 
ATOM     87  H   UNL     1      -8.079  -1.343  -2.031  0.00  0.00    +0.165 HD
ENDBRANCH  77  78
ENDBRANCH   9  77
BRANCH  13  88
ATOM     88  C   UNL     1      -2.753   0.867   2.922  0.00  0.00    +0.067 C 
BRANCH  88  89
ATOM     89  C   UNL     1      -4.005   0.810   3.772  0.00  0.00    -0.045 A 
ATOM     90  C   UNL     1      -4.474   1.982   4.393  0.00  0.00    +0.007 A 
ATOM     91  C   UNL     1      -5.730   1.994   5.006  0.00  0.00    +0.045 A 
ATOM     92  C   UNL     1      -6.519   0.843   5.032  0.00  0.00    +0.117 A 
ATOM     93  C   UNL     1      -6.022  -0.346   4.478  0.00  0.00    +0.045 A 
ATOM     94  C   UNL     1      -4.778  -0.356   3.831  0.00  0.00    +0.007 A 
BRANCH  92  95
ATOM     95  O   UNL     1      -7.812   0.877   5.552  0.00  0.00    -0.507 OA
ATOM     96  H   UNL     1      -8.335   1.744   5.537  0.00  0.00    +0.292 HD
ENDBRANCH  92  95
ENDBRANCH  88  89
ENDBRANCH  13  88
TORSDOF 21
