REMARK  Name = 
REMARK  12 active torsions:
REMARK  status: ('A' for Active; 'I' for Inactive)
REMARK    1  A    between atoms: C_1  and  C_2
REMARK    2  A    between atoms: C_2  and  C_3
REMARK    3  A    between atoms: C_3  and  C_4
REMARK    4  A    between atoms: C_6  and  C_7
REMARK    5  A    between atoms: C_11  and  C_15
REMARK    6  A    between atoms: C_16  and  O_17
REMARK    7  A    between atoms: O_17  and  C_18
REMARK    8  A    between atoms: C_18  and  C_19
REMARK    9  A    between atoms: C_22  and  S_24
REMARK   10  A    between atoms: S_24  and  N_27
REMARK   11  A    between atoms: N_30  and  C_31
REMARK   12  A    between atoms: C_31  and  C_32
REMARK                            x       y       z     vdW  Elec       q    Type
REMARK                         _______ _______ _______ _____ _____    ______ ____
ROOT
ATOM      1  C   UNL     1      -0.445  -0.738   0.251  0.00  0.00    +0.062 A 
ATOM      2  C   UNL     1      -0.582  -0.762   1.657  0.00  0.00    +0.131 A 
ATOM      3  C   UNL     1       0.447  -1.328   2.437  0.00  0.00    +0.048 A 
ATOM      4  C   UNL     1       1.598  -1.836   1.835  0.00  0.00    +0.032 A 
ATOM      5  C   UNL     1       1.747  -1.790   0.447  0.00  0.00    +0.106 A 
ATOM      6  C   UNL     1       0.725  -1.245  -0.339  0.00  0.00    +0.043 A 
ENDROOT
BRANCH   1  14
ATOM      7  C   UNL     1      -5.046   0.086  -1.261  0.00  0.00    +0.130 A 
ATOM      8  N   UNL     1      -5.582   0.796  -2.284  0.00  0.00    -0.235 NA
ATOM      9  C   UNL     1      -4.513   1.319  -2.935  0.00  0.00    +0.071 A 
ATOM     10  C   UNL     1      -4.616   2.162  -4.165  0.00  0.00    +0.068 C 
ATOM     11  C   UNL     1      -3.356   0.922  -2.292  0.00  0.00    +0.152 A 
ATOM     12  N   UNL     1      -3.700   0.164  -1.251  0.00  0.00    -0.232 N 
ATOM     13  N   UNL     1      -2.816  -0.376  -0.411  0.00  0.00    -0.274 N 
ATOM     14  C   UNL     1      -1.482  -0.144  -0.625  0.00  0.00    +0.161 A 
ATOM     15  N   UNL     1      -1.098   0.618  -1.697  0.00  0.00    -0.188 NA
ATOM     16  C   UNL     1      -2.011   1.168  -2.544  0.00  0.00    +0.299 A 
ATOM     17  O   UNL     1      -1.636   1.870  -3.519  0.00  0.00    -0.263 OA
ATOM     18  H   UNL     1      -3.136  -0.990   0.370  0.00  0.00    +0.189 HD
BRANCH   7  19
ATOM     19  C   UNL     1      -5.873  -0.612  -0.224  0.00  0.00    +0.076 C 
BRANCH  19  21
ATOM     20  C   UNL     1      -6.820  -0.435   2.106  0.00  0.00    +0.004 C 
ATOM     21  C   UNL     1      -6.060   0.289   1.000  0.00  0.00    +0.004 C 
ENDBRANCH  19  21
ENDBRANCH   7  19
ENDBRANCH   1  14
BRANCH   5  22
ATOM     22  S   UNL     1       3.222  -2.389  -0.315  0.00  0.00    +0.061 S 
ATOM     23  O   UNL     1       2.873  -3.027  -1.631  0.00  0.00    -0.153 OA
ATOM     24  O   UNL     1       3.847  -3.439   0.561  0.00  0.00    -0.153 OA
BRANCH  22  25
ATOM     25  N   UNL     1       4.370  -1.101  -0.586  0.00  0.00    -0.174 NA
ATOM     26  C   UNL     1       3.752  -0.013  -1.356  0.00  0.00    +0.125 C 
ATOM     27  C   UNL     1       4.823   1.018  -1.766  0.00  0.00    +0.101 C 
ATOM     28  N   UNL     1       5.992   1.041  -0.852  0.00  0.00    -0.300 NA
ATOM     29  C   UNL     1       5.594   0.768   0.544  0.00  0.00    +0.101 C 
ATOM     30  C   UNL     1       4.896  -0.602   0.698  0.00  0.00    +0.125 C 
BRANCH  28  31
ATOM     31  C   UNL     1       7.091   0.159  -1.308  0.00  0.00    +0.081 C 
ATOM     32  C   UNL     1       8.007   0.916  -2.264  0.00  0.00    +0.020 C 
ENDBRANCH  28  31
ENDBRANCH  22  25
ENDBRANCH   5  22
BRANCH   2  33
ATOM     33  O   UNL     1      -1.725  -0.198   2.250  0.00  0.00    -0.492 OA
BRANCH  33  34
ATOM     34  C   UNL     1      -1.941  -0.095   3.656  0.00  0.00    +0.226 C 
ATOM     35  C   UNL     1      -3.288   0.558   3.917  0.00  0.00    +0.048 C 
ENDBRANCH  33  34
ENDBRANCH   2  33
TORSDOF 8
