REMARK  Name = 
REMARK  0 active torsions:
REMARK  status: ('A' for Active; 'I' for Inactive)
REMARK                            x       y       z     vdW  Elec       q    Type
REMARK                         _______ _______ _______ _____ _____    ______ ____
ROOT
ATOM      1  C   UNL     1       1.694   1.139  -0.437  0.00  0.00    +0.034 C 
ATOM      2  C   UNL     1       1.728   1.641   1.010  0.00  0.00    +0.019 C 
ATOM      3  C   UNL     1       0.961   0.512   1.707  0.00  0.00    +0.034 C 
ATOM      4  C   UNL     1       1.864  -0.752   1.745  0.00  0.00    +0.089 C 
ATOM      5  N   UNL     1       2.948  -0.754   0.728  0.00  0.00    -0.315 NA
ATOM      6  C   UNL     1       2.653  -0.077  -0.564  0.00  0.00    +0.089 C 
ATOM      7  C   UNL     1      -0.139   0.281   0.727  0.00  0.00    -0.037 A 
ATOM      8  C   UNL     1      -1.391  -0.300   0.931  0.00  0.00    +0.034 A 
ATOM      9  C   UNL     1      -2.226  -0.486  -0.184  0.00  0.00    +0.089 A 
ATOM     10  N   UNL     1      -3.459  -1.038  -0.040  0.00  0.00    -0.252 NA
ATOM     11  C   UNL     1      -4.271  -1.230  -1.113  0.00  0.00    +0.131 A 
ATOM     12  C   UNL     1      -3.835  -0.858  -2.388  0.00  0.00    +0.131 A 
ATOM     13  N   UNL     1      -2.603  -0.306  -2.545  0.00  0.00    -0.252 NA
ATOM     14  C   UNL     1      -1.782  -0.107  -1.480  0.00  0.00    +0.089 A 
ATOM     15  C   UNL     1      -0.507   0.455  -1.655  0.00  0.00    +0.034 A 
ATOM     16  C   UNL     1       0.289   0.646  -0.524  0.00  0.00    -0.037 A 
ATOM     17  H   UNL     1       3.797  -0.307   1.148  0.00  0.00    +0.122 HD
ENDROOT
TORSDOF 0
