REMARK  Name = 
REMARK  11 active torsions:
REMARK  status: ('A' for Active; 'I' for Inactive)
REMARK    1  A    between atoms: C_3  and  N_34
REMARK    2  A    between atoms: C_4  and  O_5
REMARK    3  A    between atoms: O_5  and  C_6
REMARK    4  A    between atoms: C_6  and  C_7
REMARK    5  A    between atoms: C_9  and  C_10
REMARK    6  A    between atoms: C_19  and  O_20
REMARK    7  A    between atoms: O_20  and  C_21
REMARK    8  A    between atoms: C_21  and  C_22
REMARK    9  A    between atoms: C_24  and  N_28
REMARK   10  A    between atoms: C_26  and  C_27
REMARK   11  A    between atoms: N_34  and  C_35
REMARK                            x       y       z     vdW  Elec       q    Type
REMARK                         _______ _______ _______ _____ _____    ______ ____
ROOT
ATOM      1  C   UNL     1       1.551  -0.134  -0.898  0.00  0.00    +0.000 C 
ATOM      2  C   UNL     1       2.698  -1.024  -1.327  0.00  0.00    -0.007 C 
ATOM      3  C   UNL     1       3.902  -0.035  -1.352  0.00  0.00    -0.023 C 
ATOM      4  C   UNL     1       3.515   1.138  -0.360  0.00  0.00    +0.170 C 
ATOM      5  C   UNL     1       2.123   0.743   0.231  0.00  0.00    +0.007 C 
ATOM      6  C   UNL     1       2.325  -0.015   1.584  0.00  0.00    +0.015 C 
ATOM      7  C   UNL     1       1.132   1.919   0.443  0.00  0.00    +0.011 C 
ATOM      8  C   UNL     1      -0.305   1.413   0.746  0.00  0.00    +0.005 C 
ATOM      9  C   UNL     1      -0.832   0.401  -0.320  0.00  0.00    -0.001 C 
ATOM     10  C   UNL     1       0.192  -0.772  -0.550  0.00  0.00    -0.004 C 
ATOM     11  C   UNL     1      -0.279  -1.715  -1.677  0.00  0.00    +0.004 C 
ATOM     12  C   UNL     1      -1.706  -2.223  -1.428  0.00  0.00    +0.004 C 
ATOM     13  C   UNL     1      -2.663  -1.026  -1.294  0.00  0.00    -0.001 C 
ATOM     14  C   UNL     1      -4.146  -1.444  -1.335  0.00  0.00    +0.050 C 
ATOM     15  C   UNL     1      -5.056  -0.200  -1.355  0.00  0.00    +0.194 C 
ATOM     16  C   UNL     1      -4.819   0.677  -0.085  0.00  0.00    +0.098 C 
ATOM     17  C   UNL     1      -3.309   1.077  -0.043  0.00  0.00    +0.029 C 
ATOM     18  C   UNL     1      -2.301  -0.121  -0.068  0.00  0.00    -0.024 C 
ATOM     19  C   UNL     1      -2.388  -0.885   1.288  0.00  0.00    +0.012 C 
ENDROOT
BRANCH   3  20
ATOM     20  N   UNL     1       5.273  -0.683  -1.268  0.00  0.00    +0.382 N 
ATOM     21  C   UNL     1       5.333  -1.720  -2.346  0.00  0.00    -0.091 C 
ATOM     22  C   UNL     1       6.322   0.358  -1.564  0.00  0.00    -0.075 C 
ATOM     23  C   UNL     1       7.678   0.161  -0.836  0.00  0.00    -0.018 C 
ATOM     24  C   UNL     1       8.026  -1.305  -0.595  0.00  0.00    -0.004 C 
ATOM     25  C   UNL     1       6.891  -2.054   0.129  0.00  0.00    -0.018 C 
ATOM     26  C   UNL     1       5.524  -1.339   0.054  0.00  0.00    -0.075 C 
ENDBRANCH   3  20
BRANCH  16  27
ATOM     27  N   UNL     1      -5.255   0.044   1.204  0.00  0.00    -0.296 NA
ATOM     28  C   UNL     1      -6.498  -0.763   1.106  0.00  0.00    +0.085 C 
ATOM     29  C   UNL     1      -6.809  -1.470   2.429  0.00  0.00    +0.015 C 
ATOM     30  C   UNL     1      -6.952  -0.459   3.564  0.00  0.00    +0.002 C 
ATOM     31  C   UNL     1      -5.705   0.427   3.622  0.00  0.00    +0.015 C 
ATOM     32  C   UNL     1      -5.440   1.076   2.259  0.00  0.00    +0.085 C 
ENDBRANCH  16  27
BRANCH   4  33
ATOM     33  O   UNL     1       4.493   1.394   0.653  0.00  0.00    -0.463 OA
BRANCH  33  34
ATOM     34  C   UNL     1       4.570   2.590   1.371  0.00  0.00    +0.304 C 
ATOM     35  C   UNL     1       5.422   2.661   2.593  0.00  0.00    +0.136 C 
ATOM     36  O   UNL     1       3.912   3.605   1.013  0.00  0.00    -0.251 OA
ENDBRANCH  33  34
ENDBRANCH   4  33
BRANCH  15  37
ATOM     37  O   UNL     1      -4.776   0.552  -2.540  0.00  0.00    -0.460 OA
BRANCH  37  38
ATOM     38  C   UNL     1      -5.609   1.553  -3.043  0.00  0.00    +0.304 C 
ATOM     39  C   UNL     1      -5.218   2.282  -4.285  0.00  0.00    +0.136 C 
ATOM     40  O   UNL     1      -6.660   1.883  -2.441  0.00  0.00    -0.251 OA
ENDBRANCH  37  38
ENDBRANCH  15  37
TORSDOF 6
