REMARK  Name = 
REMARK  8 active torsions:
REMARK  status: ('A' for Active; 'I' for Inactive)
REMARK    1  A    between atoms: C_1  and  C_2
REMARK    2  A    between atoms: C_2  and  C_3
REMARK    3  A    between atoms: C_3  and  S_4
REMARK    4  A    between atoms: S_4  and  N_7
REMARK    5  A    between atoms: N_7  and  C_8
REMARK    6  A    between atoms: C_11  and  C_12
REMARK    7  A    between atoms: C_12  and  C_14
REMARK    8  A    between atoms: C_20  and  C_23
REMARK                            x       y       z     vdW  Elec       q    Type
REMARK                         _______ _______ _______ _____ _____    ______ ____
ROOT
ATOM      1  C   UNL     1      -0.694   1.600   3.250  0.00  0.00    +0.201 C 
ATOM      2  O   UNL     1      -0.276   2.504   4.022  0.00  0.00    -0.286 OA
ENDROOT
BRANCH   1   3
ATOM      3  C   UNL     1      -2.097   1.634   2.794  0.00  0.00    +0.049 A 
ATOM      4  C   UNL     1      -3.171   2.188   3.489  0.00  0.00    +0.096 A 
ATOM      5  N   UNL     1      -4.315   2.054   2.778  0.00  0.00    -0.345 N 
ATOM      6  C   UNL     1      -3.964   1.436   1.640  0.00  0.00    +0.139 A 
ATOM      7  N   UNL     1      -4.791   1.136   0.610  0.00  0.00    -0.237 NA
ATOM      8  C   UNL     1      -4.277   0.546  -0.510  0.00  0.00    +0.121 A 
ATOM      9  C   UNL     1      -2.888   0.268  -0.613  0.00  0.00    +0.001 A 
ATOM     10  C   UNL     1      -2.044   0.593   0.473  0.00  0.00    +0.022 A 
ATOM     11  C   UNL     1      -2.625   1.168   1.601  0.00  0.00    +0.030 A 
ATOM     12  H   UNL     1      -5.268   2.380   3.053  0.00  0.00    +0.167 HD
BRANCH   9  13
ATOM     13  C   UNL     1      -2.326  -0.334  -1.848  0.00  0.00    -0.016 A 
ATOM     14  C   UNL     1      -1.108   0.131  -2.380  0.00  0.00    +0.010 A 
ATOM     15  C   UNL     1      -0.589  -0.427  -3.552  0.00  0.00    +0.020 A 
ATOM     16  C   UNL     1      -1.272  -1.461  -4.199  0.00  0.00    +0.041 A 
ATOM     17 CL   UNL     1      -0.611  -2.166  -5.663  0.00  0.00    -0.084 Cl
ATOM     18  C   UNL     1      -2.479  -1.933  -3.677  0.00  0.00    +0.020 A 
ATOM     19  C   UNL     1      -3.007  -1.371  -2.510  0.00  0.00    +0.010 A 
ENDBRANCH   9  13
ENDBRANCH   1   3
BRANCH   1  23
ATOM     20  C   UNL     1       2.351  -0.181   1.856  0.00  0.00    +0.084 A 
ATOM     21  C   UNL     1       1.485   0.839   2.293  0.00  0.00    +0.159 A 
ATOM     22  F   UNL     1       1.845   2.140   2.143  0.00  0.00    -0.203 F 
ATOM     23  C   UNL     1       0.226   0.523   2.833  0.00  0.00    +0.094 A 
ATOM     24  C   UNL     1      -0.154  -0.824   2.963  0.00  0.00    +0.137 A 
ATOM     25  F   UNL     1      -1.354  -1.158   3.501  0.00  0.00    -0.205 F 
ATOM     26  C   UNL     1       0.715  -1.837   2.558  0.00  0.00    +0.041 A 
ATOM     27  C   UNL     1       1.959  -1.522   2.010  0.00  0.00    +0.030 A 
BRANCH  20  28
ATOM     28  N   UNL     1       3.608   0.171   1.248  0.00  0.00    -0.218 N 
ATOM     29  H   UNL     1       3.934   1.161   1.286  0.00  0.00    +0.173 HD
BRANCH  28  30
ATOM     30  S   UNL     1       4.570  -0.920   0.297  0.00  0.00    +0.043 S 
ATOM     31  O   UNL     1       5.125  -2.001   1.182  0.00  0.00    -0.155 OA
ATOM     32  O   UNL     1       5.718  -0.157  -0.300  0.00  0.00    -0.155 OA
BRANCH  30  33
ATOM     33  C   UNL     1       3.619  -1.654  -1.035  0.00  0.00    +0.188 C 
BRANCH  33  35
ATOM     34  C   UNL     1       3.250   0.494  -2.363  0.00  0.00    +0.005 C 
ATOM     35  C   UNL     1       2.597  -0.691  -1.654  0.00  0.00    +0.021 C 
ENDBRANCH  33  35
ENDBRANCH  30  33
ENDBRANCH  28  30
ENDBRANCH  20  28
ENDBRANCH   1  23
TORSDOF 7
