REMARK  Name = 
REMARK  9 active torsions:
REMARK  status: ('A' for Active; 'I' for Inactive)
REMARK    1  A    between atoms: C_1  and  O_2
REMARK    2  A    between atoms: O_2  and  C_3
REMARK    3  A    between atoms: C_6  and  C_9
REMARK    4  A    between atoms: C_9  and  C_10
REMARK    5  A    between atoms: C_9  and  C_14
REMARK    6  A    between atoms: C_10  and  N_11
REMARK    7  A    between atoms: N_11  and  C_12
REMARK    8  A    between atoms: N_11  and  C_13
REMARK    9  A    between atoms: C_14  and  O_15
REMARK                            x       y       z     vdW  Elec       q    Type
REMARK                         _______ _______ _______ _____ _____    ______ ____
ROOT
ATOM      1  C   UNL     1      -0.383   0.347  -1.144  0.00  0.00    +0.065 C 
ENDROOT
BRANCH   1   5
ATOM      2  C   UNL     1       3.588  -0.331   0.522  0.00  0.00    +0.120 A 
ATOM      3  C   UNL     1       3.217  -0.893  -0.712  0.00  0.00    +0.046 A 
ATOM      4  C   UNL     1       1.941  -0.669  -1.235  0.00  0.00    +0.007 A 
ATOM      5  C   UNL     1       1.005   0.123  -0.542  0.00  0.00    -0.040 A 
ATOM      6  C   UNL     1       1.385   0.676   0.696  0.00  0.00    +0.007 A 
ATOM      7  C   UNL     1       2.662   0.452   1.217  0.00  0.00    +0.046 A 
BRANCH   2   9
ATOM      8  C   UNL     1       5.893  -1.298   0.493  0.00  0.00    +0.277 C 
ATOM      9  O   UNL     1       4.856  -0.525   1.089  0.00  0.00    -0.495 OA
ENDBRANCH   2   9
ENDBRANCH   1   5
BRANCH   1  10
ATOM     10  C   UNL     1      -1.529  -0.529  -0.505  0.00  0.00    +0.074 C 
ATOM     11  C   UNL     1      -1.270  -2.035  -0.809  0.00  0.00    +0.035 C 
ATOM     12  C   UNL     1      -2.372  -2.934  -0.228  0.00  0.00    +0.003 C 
ATOM     13  C   UNL     1      -2.514  -2.728   1.284  0.00  0.00    +0.000 C 
ATOM     14  C   UNL     1      -2.753  -1.252   1.619  0.00  0.00    +0.003 C 
ATOM     15  C   UNL     1      -1.637  -0.371   1.037  0.00  0.00    +0.035 C 
BRANCH  10  16
ATOM     16  O   UNL     1      -2.766  -0.153  -1.070  0.00  0.00    -0.388 OA
ATOM     17  H   UNL     1      -2.725  -0.328  -2.047  0.00  0.00    +0.210 HD
ENDBRANCH  10  16
ENDBRANCH   1  10
BRANCH   1  18
ATOM     18  C   UNL     1      -0.714   1.850  -1.371  0.00  0.00    +0.094 C 
BRANCH  18  19
ATOM     19  N   UNL     1      -0.959   2.591  -0.108  0.00  0.00    -0.308 NA
ATOM     20  C   UNL     1      -0.038   3.734   0.026  0.00  0.00    +0.104 C 
ATOM     21  C   UNL     1      -2.347   3.080  -0.032  0.00  0.00    +0.104 C 
ENDBRANCH  18  19
ENDBRANCH   1  18
TORSDOF 6
