REMARK  Name = 
REMARK  21 active torsions:
REMARK  status: ('A' for Active; 'I' for Inactive)
REMARK    1  A    between atoms: C_1  and  O_2
REMARK    2  A    between atoms: O_2  and  C_3
REMARK    3  A    between atoms: C_4  and  O_5
REMARK    4  A    between atoms: O_5  and  C_6
REMARK    5  A    between atoms: C_8  and  C_9
REMARK    6  A    between atoms: C_9  and  C_10
REMARK    7  A    between atoms: C_10  and  N_11
REMARK    8  A    between atoms: N_11  and  C_12
REMARK    9  A    between atoms: N_11  and  C_13
REMARK   10  A    between atoms: C_13  and  C_14
REMARK   11  A    between atoms: C_14  and  C_15
REMARK   12  A    between atoms: C_15  and  C_16
REMARK   13  A    between atoms: C_16  and  C_17
REMARK   14  A    between atoms: C_16  and  C_19
REMARK   15  A    between atoms: C_16  and  C_22
REMARK   16  A    between atoms: C_19  and  C_20
REMARK   17  A    between atoms: C_19  and  C_21
REMARK   18  A    between atoms: C_24  and  O_25
REMARK   19  A    between atoms: O_25  and  C_26
REMARK   20  A    between atoms: C_27  and  O_28
REMARK   21  A    between atoms: O_28  and  C_29
REMARK                            x       y       z     vdW  Elec       q    Type
REMARK                         _______ _______ _______ _____ _____    ______ ____
ROOT
ATOM      1  C   UNL     1      -1.247   1.141   1.097  0.00  0.00    +0.028 C 
ENDROOT
BRANCH   1   2
ATOM      2  C   UNL     1      -0.686   1.914   2.317  0.00  0.00    +0.017 C 
BRANCH   2   3
ATOM      3  C   UNL     1       0.844   1.823   2.393  0.00  0.00    +0.084 C 
BRANCH   3   4
ATOM      4  N   UNL     1       1.287   0.409   2.439  0.00  0.00    -0.305 NA
ATOM      5  C   UNL     1       1.375  -0.062   3.832  0.00  0.00    +0.104 C 
BRANCH   4   6
ATOM      6  C   UNL     1       2.582   0.220   1.751  0.00  0.00    +0.088 C 
BRANCH   6   7
ATOM      7  C   UNL     1       2.363   0.049   0.242  0.00  0.00    +0.050 C 
BRANCH   7  11
ATOM      8  C   UNL     1       6.156  -0.708  -1.685  0.00  0.00    +0.161 A 
ATOM      9  C   UNL     1       5.361  -1.784  -1.261  0.00  0.00    +0.162 A 
ATOM     10  C   UNL     1       4.120  -1.532  -0.642  0.00  0.00    +0.053 A 
ATOM     11  C   UNL     1       3.670  -0.217  -0.457  0.00  0.00    -0.042 A 
ATOM     12  C   UNL     1       4.474   0.851  -0.874  0.00  0.00    +0.007 A 
ATOM     13  C   UNL     1       5.704   0.611  -1.487  0.00  0.00    +0.049 A 
BRANCH   8  15
ATOM     14  C   UNL     1       8.303   0.000  -2.759  0.00  0.00    +0.277 C 
ATOM     15  O   UNL     1       7.389  -0.989  -2.295  0.00  0.00    -0.491 OA
ENDBRANCH   8  15
BRANCH   9  16
ATOM     16  O   UNL     1       5.839  -3.088  -1.468  0.00  0.00    -0.491 OA
ATOM     17  C   UNL     1       5.141  -4.272  -1.097  0.00  0.00    +0.277 C 
ENDBRANCH   9  16
ENDBRANCH   7  11
ENDBRANCH   6   7
ENDBRANCH   4   6
ENDBRANCH   3   4
ENDBRANCH   2   3
ENDBRANCH   1   2
BRANCH   1  18
ATOM     18  C   UNL     1      -2.738   1.437   0.680  0.00  0.00    +0.085 C 
BRANCH  18  19
ATOM     19  C   UNL     1      -3.385   0.199   0.009  0.00  0.00    -0.024 A 
ATOM     20  C   UNL     1      -4.792   0.066  -0.042  0.00  0.00    +0.054 A 
ATOM     21  C   UNL     1      -5.403  -1.028  -0.684  0.00  0.00    +0.162 A 
ATOM     22  C   UNL     1      -4.610  -1.993  -1.316  0.00  0.00    +0.162 A 
ATOM     23  C   UNL     1      -3.214  -1.844  -1.322  0.00  0.00    +0.050 A 
ATOM     24  C   UNL     1      -2.612  -0.757  -0.688  0.00  0.00    +0.009 A 
BRANCH  21  25
ATOM     25  O   UNL     1      -6.798  -1.187  -0.720  0.00  0.00    -0.491 OA
ATOM     26  C   UNL     1      -7.730  -0.285  -0.135  0.00  0.00    +0.277 C 
ENDBRANCH  21  25
BRANCH  22  27
ATOM     27  O   UNL     1      -5.247  -3.080  -1.935  0.00  0.00    -0.491 OA
ATOM     28  C   UNL     1      -4.569  -4.140  -2.601  0.00  0.00    +0.277 C 
ENDBRANCH  22  27
ENDBRANCH  18  19
BRANCH  18  29
ATOM     29  C   UNL     1      -2.880   2.661  -0.310  0.00  0.00    +0.007 C 
ATOM     30  C   UNL     1      -2.320   2.396  -1.724  0.00  0.00    +0.009 C 
ATOM     31  C   UNL     1      -2.295   3.980   0.220  0.00  0.00    +0.009 C 
ENDBRANCH  18  29
BRANCH  18  32
ATOM     32  C   UNL     1      -3.509   1.730   1.916  0.00  0.00    +0.074 C 
ATOM     33  N   UNL     1      -4.111   1.960   2.878  0.00  0.00    -0.196 NA
ENDBRANCH  18  32
ENDBRANCH   1  18
TORSDOF 14
