REMARK  Name = 
REMARK  20 active torsions:
REMARK  status: ('A' for Active; 'I' for Inactive)
REMARK    1  A    between atoms: C_1  and  O_2
REMARK    2  A    between atoms: O_2  and  C_3
REMARK    3  A    between atoms: C_3  and  C_5
REMARK    4  A    between atoms: C_5  and  C_6
REMARK    5  A    between atoms: C_6  and  C_7
REMARK    6  A    between atoms: C_24  and  C_25
REMARK    7  A    between atoms: C_25  and  C_26
REMARK    8  A    between atoms: C_26  and  C_27
REMARK    9  A    between atoms: C_27  and  O_28
REMARK   10  A    between atoms: C_30  and  C_31
REMARK   11  A    between atoms: C_32  and  C_33
REMARK   12  A    between atoms: C_35  and  C_36
REMARK   13  A    between atoms: C_40  and  C_48
REMARK   14  A    between atoms: C_41  and  C_42
REMARK   15  A    between atoms: C_42  and  O_44
REMARK   16  A    between atoms: O_44  and  C_45
REMARK   17  A    between atoms: C_46  and  C_47
REMARK   18  A    between atoms: C_48  and  O_50
REMARK   19  A    between atoms: O_50  and  C_51
REMARK   20  A    between atoms: C_52  and  C_53
REMARK                            x       y       z     vdW  Elec       q    Type
REMARK                         _______ _______ _______ _____ _____    ______ ____
ROOT
ATOM      1  C   UNL     1       1.354   2.613  -1.635  0.00  0.00    -0.019 A 
ATOM      2  C   UNL     1       1.682   1.318  -1.232  0.00  0.00    +0.045 A 
ATOM      3  N   UNL     1       0.558   0.571  -1.137  0.00  0.00    -0.355 N 
ATOM      4  C   UNL     1      -0.488   1.377  -1.414  0.00  0.00    +0.045 A 
ATOM      5  C   UNL     1      -1.848   1.029  -1.333  0.00  0.00    +0.050 C 
ATOM      6  C   UNL     1      -2.395  -0.147  -0.799  0.00  0.00    +0.055 C 
ATOM      7  N   UNL     1      -1.674  -1.194  -0.331  0.00  0.00    -0.251 NA
ATOM      8  C   UNL     1      -2.513  -2.115   0.196  0.00  0.00    +0.070 C 
ATOM      9  C   UNL     1      -2.129  -3.364   0.706  0.00  0.00    +0.054 C 
ATOM     10  C   UNL     1      -0.814  -3.854   0.824  0.00  0.00    +0.045 A 
ATOM     11  N   UNL     1       0.315  -3.125   0.687  0.00  0.00    -0.354 N 
ATOM     12  C   UNL     1       1.363  -3.955   0.886  0.00  0.00    +0.049 A 
ATOM     13  C   UNL     1       2.718  -3.571   0.898  0.00  0.00    +0.054 C 
ATOM     14  C   UNL     1       3.233  -2.342   0.464  0.00  0.00    +0.070 C 
ATOM     15  N   UNL     1       2.505  -1.339  -0.060  0.00  0.00    -0.247 NA
ATOM     16  C   UNL     1       3.362  -0.351  -0.382  0.00  0.00    +0.070 C 
ATOM     17  C   UNL     1       2.989   0.886  -0.927  0.00  0.00    +0.054 C 
ATOM     18  C   UNL     1       4.737  -0.753  -0.041  0.00  0.00    -0.017 C 
ATOM     19  C   UNL     1       4.654  -1.985   0.460  0.00  0.00    -0.020 C 
ATOM     20  C   UNL     1       5.783  -2.870   0.905  0.00  0.00    +0.046 C 
ATOM     21  C   UNL     1       0.892  -5.237   1.174  0.00  0.00    +0.003 A 
ATOM     22  C   UNL     1      -0.490  -5.164   1.146  0.00  0.00    -0.018 A 
ATOM     23  C   UNL     1      -1.454  -6.286   1.420  0.00  0.00    +0.046 C 
ATOM     24  C   UNL     1      -3.888  -1.632   0.124  0.00  0.00    -0.009 C 
ATOM     25  C   UNL     1      -4.926  -2.009   0.880  0.00  0.00    +0.007 C 
ATOM     26  C   UNL     1      -6.090  -1.110   1.000  0.00  0.00    +0.012 C 
ATOM     27  C   UNL     1      -6.019   0.180   0.601  0.00  0.00    +0.051 C 
ATOM     28  C   UNL     1      -4.698   0.742   0.071  0.00  0.00    +0.151 C 
ATOM     29  C   UNL     1      -3.888  -0.369  -0.679  0.00  0.00    +0.054 C 
ATOM     30  C   UNL     1      -4.492  -0.645  -2.076  0.00  0.00    +0.024 C 
ATOM     31  C   UNL     1      -0.031   2.647  -1.746  0.00  0.00    -0.022 A 
ATOM     32  C   UNL     1      -0.890   3.857  -1.985  0.00  0.00    +0.046 C 
ATOM     33  H   UNL     1       0.510  -0.444  -0.941  0.00  0.00    +0.166 HD
ATOM     34  H   UNL     1       0.355  -2.095   0.596  0.00  0.00    +0.166 HD
ENDROOT
BRANCH  21  35
ATOM     35  C   UNL     1       1.669  -6.456   1.482  0.00  0.00    +0.002 C 
ATOM     36  C   UNL     1       2.742  -6.813   0.783  0.00  0.00    +0.009 C 
ENDBRANCH  21  35
BRANCH  28  37
ATOM     37  C   UNL     1      -3.942   1.376   1.214  0.00  0.00    +0.316 C 
ATOM     38  O   UNL     1      -3.252   0.667   2.000  0.00  0.00    -0.250 OA
BRANCH  37  39
ATOM     39  O   UNL     1      -4.061   2.754   1.419  0.00  0.00    -0.467 OA
ATOM     40  C   UNL     1      -3.301   3.451   2.395  0.00  0.00    +0.280 C 
ENDBRANCH  37  39
ENDBRANCH  28  37
BRANCH  27  41
ATOM     41  C   UNL     1      -7.194   1.065   0.750  0.00  0.00    +0.336 C 
ATOM     42  O   UNL     1      -7.237   2.170   0.136  0.00  0.00    -0.245 OA
BRANCH  41  43
ATOM     43  O   UNL     1      -8.267   0.671   1.555  0.00  0.00    -0.465 OA
ATOM     44  C   UNL     1      -9.461   1.437   1.680  0.00  0.00    +0.280 C 
ENDBRANCH  41  43
ENDBRANCH  27  41
BRANCH   1  45
ATOM     45  C   UNL     1       2.284   3.799  -1.722  0.00  0.00    +0.048 C 
BRANCH  45  46
ATOM     46  C   UNL     1       2.380   4.492  -0.357  0.00  0.00    +0.125 C 
BRANCH  46  47
ATOM     47  C   UNL     1       3.337   5.648  -0.351  0.00  0.00    +0.307 C 
ATOM     48  O   UNL     1       3.687   6.202  -1.428  0.00  0.00    -0.251 OA
BRANCH  47  50
ATOM     49  C   UNL     1       4.643   7.273   0.982  0.00  0.00    +0.280 C 
ATOM     50  O   UNL     1       3.783   6.147   0.876  0.00  0.00    -0.468 OA
ENDBRANCH  47  50
ENDBRANCH  46  47
ENDBRANCH  45  46
ENDBRANCH   1  45
BRANCH  18  51
ATOM     51  C   UNL     1       6.004   0.023  -0.314  0.00  0.00    +0.049 C 
BRANCH  51  52
ATOM     52  C   UNL     1       6.626  -0.358  -1.664  0.00  0.00    +0.125 C 
BRANCH  52  53
ATOM     53  C   UNL     1       5.760   0.079  -2.806  0.00  0.00    +0.305 C 
ATOM     54  O   UNL     1       5.854   1.250  -3.260  0.00  0.00    -0.251 OA
BRANCH  53  55
ATOM     55  O   UNL     1       4.828  -0.799  -3.344  0.00  0.00    -0.481 OA
ATOM     56  H   UNL     1       4.222  -0.507  -4.101  0.00  0.00    +0.295 HD
ENDBRANCH  53  55
ENDBRANCH  52  53
ENDBRANCH  51  52
ENDBRANCH  18  51
TORSDOF 13
