REMARK  Name = 
REMARK  5 active torsions:
REMARK  status: ('A' for Active; 'I' for Inactive)
REMARK    1  A    between atoms: N9_10  and  C1*_11
REMARK    2  A    between atoms: C4*_13  and  C5*_14
REMARK    3  A    between atoms: C5*_14  and  O5*_15
REMARK    4  A    between atoms: C3*_16  and  O3*_17
REMARK    5  A    between atoms: C2*_18  and  O2*_19
REMARK                            x       y       z     vdW  Elec       q    Type
REMARK                         _______ _______ _______ _____ _____    ______ ____
ROOT
ATOM      1  N6    A A   1       5.158  -0.136  -1.523  0.00  0.00    -0.341 N 
ATOM      2  C6    A A   1       4.109   0.467  -0.765  0.00  0.00    +0.147 A 
ATOM      3  N1    A A   1       4.307   1.662  -0.132  0.00  0.00    -0.219 NA
ATOM      4  C2    A A   1       3.308   2.259   0.595  0.00  0.00    +0.225 A 
ATOM      5  N3    A A   1       2.080   1.668   0.705  0.00  0.00    -0.216 NA
ATOM      6  C4    A A   1       1.891   0.481   0.080  0.00  0.00    +0.167 A 
ATOM      7  C5    A A   1       2.858  -0.127  -0.645  0.00  0.00    +0.147 A 
ATOM      8  N7    A A   1       2.398  -1.274  -1.179  0.00  0.00    -0.231 NA
ATOM      9  C8    A A   1       1.112  -1.318  -0.734  0.00  0.00    +0.203 A 
ATOM     10  N9    A A   1       0.775  -0.258   0.048  0.00  0.00    -0.286 N 
ATOM     11  H61   A A   1       6.088   0.333  -1.598  0.00  0.00    +0.144 HD
ATOM     12  H62   A A   1       5.013  -1.049  -2.010  0.00  0.00    +0.144 HD
ENDROOT
BRANCH  10  13
ATOM     13  C1*   A A   1      -0.528   0.062   0.637  0.00  0.00    +0.253 C 
ATOM     14  O4*   A A   1      -1.303  -1.103   0.789  0.00  0.00    -0.346 OA
ATOM     15  C4*   A A   1      -2.655  -0.696   0.774  0.00  0.00    +0.177 C 
ATOM     16  C3*   A A   1      -2.761   0.678   0.082  0.00  0.00    +0.178 C 
ATOM     17  C2*   A A   1      -1.317   1.046  -0.225  0.00  0.00    +0.195 C 
BRANCH  16  18
ATOM     18  O3*   A A   1      -3.369   1.631   0.923  0.00  0.00    -0.386 OA
ATOM     19  H3*   A A   1      -2.814   1.717   1.743  0.00  0.00    +0.210 HD
ENDBRANCH  16  18
BRANCH  17  20
ATOM     20  O2*   A A   1      -1.035   0.902  -1.598  0.00  0.00    -0.385 OA
ATOM     21  H2*   A A   1      -1.238  -0.035  -1.860  0.00  0.00    +0.210 HD
ENDBRANCH  17  20
BRANCH  15  22
ATOM     22  C5*   A A   1      -3.505  -1.767   0.082  0.00  0.00    +0.190 C 
BRANCH  22  23
ATOM     23  O5*   A A   1      -3.033  -2.002  -1.217  0.00  0.00    -0.392 OA
ATOM     24  H5*   A A   1      -3.629  -2.694  -1.605  0.00  0.00    +0.210 HD
ENDBRANCH  22  23
ENDBRANCH  15  22
ENDBRANCH  10  13
TORSDOF 5
