REMARK  Name = 
REMARK  6 active torsions:
REMARK  status: ('A' for Active; 'I' for Inactive)
REMARK    1  A    between atoms: N_1  and  C_2
REMARK    2  A    between atoms: C_2  and  C_3
REMARK    3  A    between atoms: C_2  and  C_8
REMARK    4  A    between atoms: C_3  and  C_4
REMARK    5  A    between atoms: C_4  and  C_5
REMARK    6  A    between atoms: C_5  and  O_6
REMARK                            x       y       z     vdW  Elec       q    Type
REMARK                         _______ _______ _______ _____ _____    ______ ____
ROOT
ATOM      1  C   UNL     1      -0.464  -0.771  -0.154  0.00  0.00    +0.074 C 
ENDROOT
BRANCH   1   2
ATOM      2  N   UNL     1      -1.200  -1.927   0.362  0.00  0.00    -0.324 NA
ATOM      3  H   UNL     1      -0.516  -2.582   0.807  0.00  0.00    +0.119 HD
ATOM      4  H   UNL     1      -1.608  -2.447  -0.450  0.00  0.00    +0.119 HD
ENDBRANCH   1   2
BRANCH   1   5
ATOM      5  C   UNL     1      -1.398   0.130  -0.935  0.00  0.00    -0.016 C 
ATOM      6  C   UNL     1      -2.516   0.650  -0.416  0.00  0.00    +0.005 C 
ENDBRANCH   1   5
BRANCH   1   7
ATOM      7  C   UNL     1       0.222  -0.019   1.010  0.00  0.00    +0.034 C 
BRANCH   7   8
ATOM      8  C   UNL     1       1.072   1.179   0.556  0.00  0.00    +0.122 C 
BRANCH   8   9
ATOM      9  C   UNL     1       2.240   0.752  -0.278  0.00  0.00    +0.305 C 
ATOM     10  O   UNL     1       3.265   0.268   0.271  0.00  0.00    -0.251 OA
BRANCH   9  11
ATOM     11  O   UNL     1       2.179   0.860  -1.664  0.00  0.00    -0.481 OA
ATOM     12  H   UNL     1       2.954   0.562  -2.243  0.00  0.00    +0.295 HD
ENDBRANCH   9  11
ENDBRANCH   8   9
ENDBRANCH   7   8
ENDBRANCH   1   7
TORSDOF 6
