REMARK  Name = 
REMARK  8 active torsions:
REMARK  status: ('A' for Active; 'I' for Inactive)
REMARK    1  A    between atoms: C_2  and  C_4
REMARK    2  A    between atoms: C_11  and  N_13
REMARK    3  A    between atoms: N_16  and  C_17
REMARK    4  A    between atoms: C_17  and  C_18
REMARK    5  A    between atoms: C_18  and  C_19
REMARK    6  A    between atoms: C_19  and  C_20
REMARK    7  A    between atoms: C_20  and  C_21
REMARK    8  A    between atoms: C_27  and  C_30
REMARK                            x       y       z     vdW  Elec       q    Type
REMARK                         _______ _______ _______ _____ _____    ______ ____
ROOT
ATOM      1  N   UNL     1      -2.763  -1.526  -1.585  0.00  0.00    -0.327 N 
ATOM      2  C   UNL     1      -1.882  -2.218  -0.640  0.00  0.00    +0.120 C 
ATOM      3  C   UNL     1      -0.579  -1.421  -0.434  0.00  0.00    +0.103 C 
ATOM      4  N   UNL     1      -0.224  -0.553  -1.589  0.00  0.00    -0.299 NA
ATOM      5  C   UNL     1      -0.692  -1.125  -2.866  0.00  0.00    +0.103 C 
ATOM      6  C   UNL     1      -2.224  -1.131  -2.892  0.00  0.00    +0.120 C 
ENDROOT
BRANCH   1  14
ATOM      7  C   UNL     1      -7.813   0.050   1.030  0.00  0.00    +0.190 A 
ATOM      8  C   UNL     1      -6.457   0.049   1.363  0.00  0.00    +0.063 A 
ATOM      9  C   UNL     1      -5.836  -0.475   0.253  0.00  0.00    +0.023 A 
ATOM     10  C   UNL     1      -6.813  -0.751  -0.663  0.00  0.00    +0.136 A 
ATOM     11  O   UNL     1      -7.992  -0.435  -0.186  0.00  0.00    -0.450 OA
ATOM     12  C   UNL     1      -6.515  -1.289  -1.910  0.00  0.00    +0.049 A 
ATOM     13  C   UNL     1      -5.165  -1.547  -2.211  0.00  0.00    +0.027 A 
ATOM     14  C   UNL     1      -4.144  -1.270  -1.263  0.00  0.00    +0.031 A 
ATOM     15  C   UNL     1      -4.490  -0.717  -0.008  0.00  0.00    +0.034 A 
BRANCH   7  17
ATOM     16  N   UNL     1      -8.685   1.116   3.153  0.00  0.00    -0.323 N 
ATOM     17  C   UNL     1      -8.922   0.512   1.880  0.00  0.00    +0.277 C 
ATOM     18  O   UNL     1     -10.107   0.377   1.473  0.00  0.00    -0.267 OA
ATOM     19  H   UNL     1      -7.720   1.292   3.504  0.00  0.00    +0.145 HD
ATOM     20  H   UNL     1      -9.491   1.422   3.743  0.00  0.00    +0.145 HD
ENDBRANCH   7  17
ENDBRANCH   1  14
BRANCH   4  21
ATOM     21  C   UNL     1       1.231  -0.292  -1.642  0.00  0.00    +0.084 C 
BRANCH  21  22
ATOM     22  C   UNL     1       1.667   0.654  -0.514  0.00  0.00    +0.016 C 
BRANCH  22  23
ATOM     23  C   UNL     1       3.169   0.949  -0.593  0.00  0.00    +0.006 C 
BRANCH  23  24
ATOM     24  C   UNL     1       3.594   1.936   0.498  0.00  0.00    +0.037 C 
BRANCH  24  25
ATOM     25  C   UNL     1       5.082   2.115   0.494  0.00  0.00    -0.022 A 
ATOM     26  C   UNL     1       5.804   3.071  -0.217  0.00  0.00    +0.087 A 
ATOM     27  N   UNL     1       7.132   2.886  -0.038  0.00  0.00    -0.360 N 
ATOM     28  C   UNL     1       7.254   1.815   0.767  0.00  0.00    +0.047 A 
ATOM     29  C   UNL     1       6.025   1.312   1.108  0.00  0.00    +0.004 A 
ATOM     30  C   UNL     1       5.888   0.182   1.914  0.00  0.00    +0.029 A 
ATOM     31  C   UNL     1       7.064  -0.433   2.388  0.00  0.00    +0.052 A 
ATOM     32  C   UNL     1       8.333   0.092   2.042  0.00  0.00    +0.021 A 
ATOM     33  C   UNL     1       8.435   1.228   1.218  0.00  0.00    +0.027 A 
ATOM     34  H   UNL     1       7.903   3.453  -0.457  0.00  0.00    +0.165 HD
BRANCH  31  35
ATOM     35  C   UNL     1       6.974  -1.599   3.227  0.00  0.00    +0.099 C 
ATOM     36  N   UNL     1       6.902  -2.536   3.901  0.00  0.00    -0.191 NA
ENDBRANCH  31  35
ENDBRANCH  24  25
ENDBRANCH  23  24
ENDBRANCH  22  23
ENDBRANCH  21  22
ENDBRANCH   4  21
TORSDOF 8
