REMARK  Name = 
REMARK  5 active torsions:
REMARK  status: ('A' for Active; 'I' for Inactive)
REMARK    1  A    between atoms: O_1  and  C_2
REMARK    2  A    between atoms: C_9  and  N_12
REMARK    3  A    between atoms: N_12  and  C_13
REMARK    4  A    between atoms: C_13  and  C_14
REMARK    5  A    between atoms: C_20  and  C_21
REMARK                            x       y       z     vdW  Elec       q    Type
REMARK                         _______ _______ _______ _____ _____    ______ ____
ROOT
ATOM      1  C   UNL     1      -3.107   0.524  -1.283  0.00  0.00    +0.068 C 
ATOM      2  C   UNL     1      -3.252  -1.019  -1.201  0.00  0.00    +0.038 C 
ATOM      3  C   UNL     1      -2.970  -1.496   0.241  0.00  0.00    -0.006 C 
ATOM      4  C   UNL     1      -3.978  -0.838   1.205  0.00  0.00    +0.007 C 
ATOM      5  C   UNL     1      -3.834   0.696   1.130  0.00  0.00    -0.006 C 
ATOM      6  C   UNL     1      -4.113   1.175  -0.308  0.00  0.00    +0.038 C 
ATOM      7  C   UNL     1      -2.400   1.095   1.532  0.00  0.00    +0.026 C 
ATOM      8  C   UNL     1      -1.358   0.446   0.579  0.00  0.00    +0.023 C 
ATOM      9  C   UNL     1      -1.531  -1.103   0.645  0.00  0.00    +0.026 C 
ATOM     10  C   UNL     1      -1.665   0.928  -0.872  0.00  0.00    +0.057 C 
ENDROOT
BRANCH   1  11
ATOM     11  O   UNL     1      -3.389   0.974  -2.586  0.00  0.00    -0.388 OA
ATOM     12  H   UNL     1      -2.744   0.540  -3.203  0.00  0.00    +0.210 HD
ENDBRANCH   1  11
BRANCH   8  13
ATOM     13  N   UNL     1      -0.013   0.874   1.041  0.00  0.00    -0.303 NA
ATOM     14  H   UNL     1       0.166   0.438   1.978  0.00  0.00    +0.123 HD
BRANCH  13  15
ATOM     15  C   UNL     1       1.110   0.528   0.153  0.00  0.00    +0.178 C 
BRANCH  15  16
ATOM     16  C   UNL     1       2.423   0.937   0.771  0.00  0.00    +0.230 C 
ATOM     17  O   UNL     1       2.445   1.904   1.581  0.00  0.00    -0.274 OA
ATOM     18  N   UNL     1       3.663   0.306   0.393  0.00  0.00    -0.285 N 
ATOM     19  C   UNL     1       4.954   0.799   0.848  0.00  0.00    +0.109 C 
ATOM     20  C   UNL     1       5.995  -0.110   0.207  0.00  0.00    +0.022 C 
ATOM     21  C   UNL     1       5.275  -0.813  -0.940  0.00  0.00    +0.039 C 
ATOM     22  C   UNL     1       3.790  -0.772  -0.579  0.00  0.00    +0.179 C 
BRANCH  22  23
ATOM     23  C   UNL     1       3.364  -2.046   0.026  0.00  0.00    +0.085 C 
ATOM     24  N   UNL     1       3.028  -3.046   0.502  0.00  0.00    -0.195 NA
ENDBRANCH  22  23
ENDBRANCH  15  16
ENDBRANCH  13  15
ENDBRANCH   8  13
TORSDOF 5
