REMARK  Name = 
REMARK  19 active torsions:
REMARK  status: ('A' for Active; 'I' for Inactive)
REMARK    1  A    between atoms: N_2  and  C_3
REMARK    2  A    between atoms: C_7  and  C_12
REMARK    3  A    between atoms: C_8  and  O_9
REMARK    4  A    between atoms: O_9  and  C_10
REMARK    5  A    between atoms: C_12  and  C_34
REMARK    6  A    between atoms: C_18  and  O_19
REMARK    7  A    between atoms: C_18  and  C_20
REMARK    8  A    between atoms: C_20  and  C_21
REMARK    9  A    between atoms: C_34  and  O_36
REMARK   10  A    between atoms: O_36  and  C_37
REMARK   11  A    between atoms: C_45  and  C_46
REMARK   12  A    between atoms: C_46  and  C_47
REMARK   13  A    between atoms: C_48  and  O_49
REMARK   14  A    between atoms: O_49  and  C_50
REMARK   15  A    between atoms: C_50  and  C_51
REMARK   16  A    between atoms: C_53  and  O_54
REMARK   17  A    between atoms: C_53  and  C_55
REMARK   18  A    between atoms: C_55  and  O_57
REMARK   19  A    between atoms: O_57  and  C_58
REMARK                            x       y       z     vdW  Elec       q    Type
REMARK                         _______ _______ _______ _____ _____    ______ ____
ROOT
ATOM      1  C   UNL     1       3.201  -1.064   1.329  0.00  0.00    +0.132 C 
ATOM      2  N   UNL     1       2.773  -2.295   0.631  0.00  0.00    -0.325 N 
ATOM      3  C   UNL     1       2.914  -3.603   1.267  0.00  0.00    +0.129 C 
ATOM      4  C   UNL     1       1.555  -1.950  -0.035  0.00  0.00    +0.037 A 
ATOM      5  C   UNL     1       1.268  -0.626   0.049  0.00  0.00    -0.016 A 
ATOM      6  C   UNL     1       0.084  -0.102  -0.468  0.00  0.00    +0.014 A 
ATOM      7  C   UNL     1      -0.890  -0.954  -1.059  0.00  0.00    +0.017 A 
ATOM      8  C   UNL     1      -0.514  -2.328  -1.258  0.00  0.00    +0.126 A 
ATOM      9  C   UNL     1       0.684  -2.820  -0.687  0.00  0.00    +0.069 A 
ATOM     10  C   UNL     1       2.397   0.121   0.697  0.00  0.00    +0.037 C 
ATOM     11  C   UNL     1       1.877   1.133   1.748  0.00  0.00    +0.030 C 
ATOM     12  C   UNL     1       2.003   2.505   1.092  0.00  0.00    +0.086 C 
ATOM     13  N   UNL     1       2.352   2.272  -0.307  0.00  0.00    -0.294 NA
ATOM     14  C   UNL     1       2.955   3.417  -0.996  0.00  0.00    +0.111 C 
ATOM     15  C   UNL     1       4.386   3.616  -0.618  0.00  0.00    -0.015 C 
ATOM     16  C   UNL     1       5.167   2.577  -0.329  0.00  0.00    -0.018 C 
ATOM     17  C   UNL     1       4.674   1.130  -0.276  0.00  0.00    +0.045 C 
ATOM     18  C   UNL     1       5.220   0.569   1.093  0.00  0.00    +0.232 C 
ATOM     19  C   UNL     1       4.755  -0.864   1.540  0.00  0.00    +0.219 C 
ATOM     20  C   UNL     1       3.089   1.000  -0.385  0.00  0.00    +0.083 C 
ENDROOT
BRANCH   7  21
ATOM     21  C   UNL     1      -2.265  -0.369  -1.532  0.00  0.00    +0.136 C 
ATOM     22  C   UNL     1      -3.442  -1.295  -1.007  0.00  0.00    +0.034 C 
ATOM     23  C   UNL     1      -4.955  -0.960  -1.290  0.00  0.00    +0.008 C 
ATOM     24  C   UNL     1      -5.395   0.307  -0.590  0.00  0.00    +0.088 C 
ATOM     25  N   UNL     1      -5.239   0.002   0.826  0.00  0.00    -0.299 NA
ATOM     26  C   UNL     1      -6.361  -0.761   1.384  0.00  0.00    +0.119 C 
ATOM     27  C   UNL     1      -6.906  -1.819   0.343  0.00  0.00    +0.079 C 
ATOM     28  C   UNL     1      -5.843  -2.161  -0.778  0.00  0.00    +0.041 C 
ATOM     29  C   UNL     1      -4.636   1.038   1.663  0.00  0.00    +0.089 C 
ATOM     30  C   UNL     1      -3.106   0.957   1.507  0.00  0.00    +0.053 C 
ATOM     31  C   UNL     1      -2.645   1.632   0.239  0.00  0.00    -0.016 A 
ATOM     32  C   UNL     1      -2.373   1.109  -1.064  0.00  0.00    +0.042 A 
ATOM     33  N   UNL     1      -1.938   2.133  -1.853  0.00  0.00    -0.357 N 
ATOM     34  C   UNL     1      -1.981   3.254  -1.114  0.00  0.00    +0.047 A 
ATOM     35  C   UNL     1      -1.608   4.539  -1.518  0.00  0.00    +0.026 A 
ATOM     36  C   UNL     1      -1.715   5.583  -0.581  0.00  0.00    +0.002 A 
ATOM     37  C   UNL     1      -2.175   5.320   0.726  0.00  0.00    +0.001 A 
ATOM     38  C   UNL     1      -2.530   4.012   1.108  0.00  0.00    +0.010 A 
ATOM     39  C   UNL     1      -2.416   2.995   0.151  0.00  0.00    +0.003 A 
ATOM     40  H   UNL     1      -1.571   2.086  -2.824  0.00  0.00    +0.166 HD
BRANCH  27  41
ATOM     41  O   UNL     1      -8.044  -1.289  -0.304  0.00  0.00    -0.387 OA
ATOM     42  H   UNL     1      -8.748  -1.135   0.382  0.00  0.00    +0.210 HD
ENDBRANCH  27  41
BRANCH  27  43
ATOM     43  C   UNL     1      -7.307  -3.114   1.107  0.00  0.00    +0.032 C 
ATOM     44  C   UNL     1      -8.014  -4.169   0.242  0.00  0.00    +0.007 C 
ENDBRANCH  27  43
BRANCH  21  45
ATOM     45  C   UNL     1      -2.324  -0.402  -3.057  0.00  0.00    +0.323 C 
ATOM     46  O   UNL     1      -3.263   0.188  -3.670  0.00  0.00    -0.249 OA
BRANCH  45  47
ATOM     47  O   UNL     1      -1.349  -1.090  -3.797  0.00  0.00    -0.467 OA
ATOM     48  C   UNL     1      -1.365  -1.160  -5.218  0.00  0.00    +0.280 C 
ENDBRANCH  45  47
ENDBRANCH  21  45
ENDBRANCH   7  21
BRANCH   8  49
ATOM     49  O   UNL     1      -1.321  -3.167  -2.041  0.00  0.00    -0.495 OA
ATOM     50  C   UNL     1      -1.040  -4.542  -2.343  0.00  0.00    +0.277 C 
ENDBRANCH   8  49
BRANCH  17  51
ATOM     51  C   UNL     1       5.328   0.390  -1.490  0.00  0.00    +0.013 C 
ATOM     52  C   UNL     1       5.279   1.152  -2.830  0.00  0.00    +0.005 C 
ENDBRANCH  17  51
BRANCH  19  53
ATOM     53  O   UNL     1       4.973  -0.914   2.938  0.00  0.00    -0.373 OA
ATOM     54  H   UNL     1       4.650  -1.793   3.284  0.00  0.00    +0.211 HD
ENDBRANCH  19  53
BRANCH  19  55
ATOM     55  C   UNL     1       5.629  -1.949   0.898  0.00  0.00    +0.345 C 
ATOM     56  O   UNL     1       5.489  -2.242  -0.323  0.00  0.00    -0.247 OA
BRANCH  55  57
ATOM     57  O   UNL     1       6.549  -2.720   1.642  0.00  0.00    -0.466 OA
ATOM     58  C   UNL     1       7.436  -2.244   2.654  0.00  0.00    +0.280 C 
ENDBRANCH  55  57
ENDBRANCH  19  55
BRANCH  18  59
ATOM     59  O   UNL     1       4.873   1.505   2.119  0.00  0.00    -0.457 OA
BRANCH  59  60
ATOM     60  C   UNL     1       5.725   1.908   3.157  0.00  0.00    +0.304 C 
ATOM     61  C   UNL     1       5.287   2.985   4.093  0.00  0.00    +0.136 C 
ATOM     62  O   UNL     1       6.878   1.410   3.280  0.00  0.00    -0.251 OA
ENDBRANCH  59  60
ENDBRANCH  18  59
TORSDOF 12
