REMARK  Name = 
REMARK  18 active torsions:
REMARK  status: ('A' for Active; 'I' for Inactive)
REMARK    1  A    between atoms: C_8  and  C_35
REMARK    2  A    between atoms: C_9  and  O_10
REMARK    3  A    between atoms: O_10  and  C_11
REMARK    4  A    between atoms: C_18  and  O_19
REMARK    5  A    between atoms: C_18  and  C_31
REMARK    6  A    between atoms: C_20  and  O_21
REMARK    7  A    between atoms: O_21  and  C_22
REMARK    8  A    between atoms: C_22  and  C_23
REMARK    9  A    between atoms: C_25  and  C_26
REMARK   10  A    between atoms: C_26  and  C_27
REMARK   11  A    between atoms: C_31  and  O_33
REMARK   12  A    between atoms: O_33  and  C_34
REMARK   13  A    between atoms: C_35  and  C_57
REMARK   14  A    between atoms: C_41  and  O_42
REMARK   15  A    between atoms: C_41  and  C_43
REMARK   16  A    between atoms: C_43  and  C_44
REMARK   17  A    between atoms: C_57  and  O_59
REMARK   18  A    between atoms: O_59  and  C_60
REMARK                            x       y       z     vdW  Elec       q    Type
REMARK                         _______ _______ _______ _____ _____    ______ ____
ROOT
ATOM      1  C   UNL     1       2.830  -1.293  -0.736  0.00  0.00    +0.083 C 
ATOM      2  N   UNL     1       2.996  -2.274  -1.810  0.00  0.00    -0.294 NA
ATOM      3  C   UNL     1       1.896  -2.002  -2.724  0.00  0.00    +0.086 C 
ATOM      4  C   UNL     1       1.792  -0.482  -2.776  0.00  0.00    +0.030 C 
ATOM      5  C   UNL     1       2.400   0.020  -1.434  0.00  0.00    +0.037 C 
ATOM      6  C   UNL     1       1.345   0.743  -0.642  0.00  0.00    -0.016 A 
ATOM      7  C   UNL     1       0.150   0.226  -0.148  0.00  0.00    +0.014 A 
ATOM      8  C   UNL     1      -0.735   1.038   0.611  0.00  0.00    +0.017 A 
ATOM      9  C   UNL     1      -0.345   2.402   0.838  0.00  0.00    +0.126 A 
ATOM     10  C   UNL     1       0.840   2.909   0.252  0.00  0.00    +0.069 A 
ATOM     11  C   UNL     1       1.650   2.057  -0.498  0.00  0.00    +0.044 A 
ATOM     12  N   UNL     1       2.865   2.390  -1.151  0.00  0.00    -0.266 N 
ATOM     13  C   UNL     1       3.182   3.720  -1.594  0.00  0.00    +0.333 C 
ATOM     14  O   UNL     1       4.135   3.930  -2.387  0.00  0.00    -0.279 OA
ATOM     15  C   UNL     1       3.500   1.151  -1.644  0.00  0.00    +0.140 C 
ATOM     16  C   UNL     1       4.957   0.928  -1.034  0.00  0.00    +0.220 C 
ATOM     17  C   UNL     1       5.239  -0.553  -0.612  0.00  0.00    +0.232 C 
ATOM     18  C   UNL     1       4.090  -1.260   0.158  0.00  0.00    +0.045 C 
ATOM     19  C   UNL     1       4.550  -2.698   0.440  0.00  0.00    -0.018 C 
ATOM     20  C   UNL     1       4.084  -3.768  -0.236  0.00  0.00    -0.015 C 
ATOM     21  C   UNL     1       2.991  -3.639  -1.266  0.00  0.00    +0.111 C 
ENDROOT
BRANCH   8  22
ATOM     22  C   UNL     1      -2.063   0.456   1.191  0.00  0.00    +0.136 C 
ATOM     23  C   UNL     1      -3.258   1.278   0.568  0.00  0.00    +0.034 C 
ATOM     24  C   UNL     1      -4.764   0.934   0.863  0.00  0.00    +0.008 C 
ATOM     25  C   UNL     1      -5.161  -0.420   0.301  0.00  0.00    +0.088 C 
ATOM     26  N   UNL     1      -4.959  -0.289  -1.138  0.00  0.00    -0.299 NA
ATOM     27  C   UNL     1      -6.008   0.462  -1.839  0.00  0.00    +0.119 C 
ATOM     28  C   UNL     1      -6.673   1.548  -0.919  0.00  0.00    +0.079 C 
ATOM     29  C   UNL     1      -5.674   2.039   0.204  0.00  0.00    +0.041 C 
ATOM     30  C   UNL     1      -4.314  -1.404  -1.830  0.00  0.00    +0.089 C 
ATOM     31  C   UNL     1      -2.793  -1.294  -1.634  0.00  0.00    +0.053 C 
ATOM     32  C   UNL     1      -2.368  -1.786  -0.272  0.00  0.00    -0.016 A 
ATOM     33  C   UNL     1      -2.123  -1.077   0.941  0.00  0.00    +0.042 A 
ATOM     34  N   UNL     1      -1.644  -1.961   1.864  0.00  0.00    -0.357 N 
ATOM     35  C   UNL     1      -1.611  -3.171   1.286  0.00  0.00    +0.047 A 
ATOM     36  C   UNL     1      -1.124  -4.352   1.845  0.00  0.00    +0.026 A 
ATOM     37  C   UNL     1      -1.113  -5.506   1.041  0.00  0.00    +0.002 A 
ATOM     38  C   UNL     1      -1.578  -5.451  -0.289  0.00  0.00    +0.001 A 
ATOM     39  C   UNL     1      -2.052  -4.241  -0.828  0.00  0.00    +0.010 A 
ATOM     40  C   UNL     1      -2.053  -3.110  -0.004  0.00  0.00    +0.003 A 
ATOM     41  H   UNL     1      -1.283  -1.754   2.821  0.00  0.00    +0.166 HD
BRANCH  28  42
ATOM     42  O   UNL     1      -7.814   0.955  -0.336  0.00  0.00    -0.387 OA
ATOM     43  H   UNL     1      -8.156   1.547   0.381  0.00  0.00    +0.210 HD
ENDBRANCH  28  42
BRANCH  28  44
ATOM     44  C   UNL     1      -7.127   2.735  -1.820  0.00  0.00    +0.032 C 
ATOM     45  C   UNL     1      -7.840   3.868  -1.077  0.00  0.00    +0.007 C 
ENDBRANCH  28  44
BRANCH  22  46
ATOM     46  C   UNL     1      -2.065   0.663   2.707  0.00  0.00    +0.323 C 
ATOM     47  O   UNL     1      -3.100   0.403   3.382  0.00  0.00    -0.249 OA
BRANCH  46  48
ATOM     48  O   UNL     1      -0.882   1.021   3.371  0.00  0.00    -0.467 OA
ATOM     49  C   UNL     1      -0.787   1.105   4.787  0.00  0.00    +0.280 C 
ENDBRANCH  46  48
ENDBRANCH  22  46
ENDBRANCH   8  22
BRANCH   9  50
ATOM     50  O   UNL     1      -1.132   3.219   1.669  0.00  0.00    -0.495 OA
ATOM     51  C   UNL     1      -0.798   4.545   2.064  0.00  0.00    +0.277 C 
ENDBRANCH   9  50
BRANCH  16  52
ATOM     52  O   UNL     1       5.889   1.213  -2.060  0.00  0.00    -0.373 OA
ATOM     53  H   UNL     1       5.824   2.174  -2.297  0.00  0.00    +0.211 HD
ENDBRANCH  16  52
BRANCH  18  54
ATOM     54  C   UNL     1       3.778  -0.561   1.523  0.00  0.00    +0.013 C 
ATOM     55  C   UNL     1       3.016  -1.420   2.547  0.00  0.00    +0.005 C 
ENDBRANCH  18  54
BRANCH  16  56
ATOM     56  C   UNL     1       5.321   1.845   0.143  0.00  0.00    +0.345 C 
ATOM     57  O   UNL     1       6.543   2.087   0.363  0.00  0.00    -0.247 OA
BRANCH  56  58
ATOM     58  O   UNL     1       4.352   2.377   1.001  0.00  0.00    -0.466 OA
ATOM     59  C   UNL     1       4.670   3.263   2.071  0.00  0.00    +0.280 C 
ENDBRANCH  56  58
ENDBRANCH  16  56
BRANCH  17  60
ATOM     60  O   UNL     1       5.569  -1.338  -1.768  0.00  0.00    -0.457 OA
BRANCH  60  61
ATOM     61  C   UNL     1       6.877  -1.563  -2.218  0.00  0.00    +0.304 C 
ATOM     62  C   UNL     1       7.107  -2.502  -3.351  0.00  0.00    +0.136 C 
ATOM     63  O   UNL     1       7.853  -0.950  -1.708  0.00  0.00    -0.251 OA
ENDBRANCH  60  61
ENDBRANCH  17  60
TORSDOF 12
