REMARK  Name = 
REMARK  15 active torsions:
REMARK  status: ('A' for Active; 'I' for Inactive)
REMARK    1  A    between atoms: C_8  and  C_30
REMARK    2  A    between atoms: C_9  and  O_10
REMARK    3  A    between atoms: O_10  and  C_11
REMARK    4  A    between atoms: N_14  and  C_15
REMARK    5  A    between atoms: C_17  and  O_18
REMARK    6  A    between atoms: C_17  and  C_27
REMARK    7  A    between atoms: C_19  and  O_20
REMARK    8  A    between atoms: C_21  and  C_22
REMARK    9  A    between atoms: C_22  and  C_23
REMARK   10  A    between atoms: C_30  and  C_52
REMARK   11  A    between atoms: C_36  and  O_37
REMARK   12  A    between atoms: C_36  and  C_38
REMARK   13  A    between atoms: C_38  and  C_39
REMARK   14  A    between atoms: C_52  and  O_54
REMARK   15  A    between atoms: O_54  and  C_55
REMARK                            x       y       z     vdW  Elec       q    Type
REMARK                         _______ _______ _______ _____ _____    ______ ____
ROOT
ATOM      1  C   UNL     1      -3.395  -0.779   1.029  0.00  0.00    +0.082 C 
ATOM      2  N   UNL     1      -2.741  -0.762   2.369  0.00  0.00    -0.294 NA
ATOM      3  C   UNL     1      -2.681   0.626   2.864  0.00  0.00    +0.086 C 
ATOM      4  C   UNL     1      -3.212   1.552   1.786  0.00  0.00    +0.030 C 
ATOM      5  C   UNL     1      -3.357   0.700   0.527  0.00  0.00    +0.037 C 
ATOM      6  C   UNL     1      -2.164   0.857  -0.385  0.00  0.00    -0.016 A 
ATOM      7  C   UNL     1      -0.811   0.754  -0.057  0.00  0.00    +0.014 A 
ATOM      8  C   UNL     1       0.176   0.793  -1.076  0.00  0.00    +0.017 A 
ATOM      9  C   UNL     1      -0.269   0.855  -2.435  0.00  0.00    +0.126 A 
ATOM     10  C   UNL     1      -1.650   0.922  -2.728  0.00  0.00    +0.069 A 
ATOM     11  C   UNL     1      -2.574   0.949  -1.681  0.00  0.00    +0.037 A 
ATOM     12  N   UNL     1      -3.993   1.058  -1.785  0.00  0.00    -0.325 N 
ATOM     13  C   UNL     1      -4.660   1.626  -2.962  0.00  0.00    +0.129 C 
ATOM     14  C   UNL     1      -4.512   1.200  -0.405  0.00  0.00    +0.128 C 
ATOM     15  C   UNL     1      -5.892   0.523  -0.130  0.00  0.00    +0.187 C 
ATOM     16  C   UNL     1      -5.708  -1.019  -0.170  0.00  0.00    +0.168 C 
ATOM     17  C   UNL     1      -4.777  -1.568   0.969  0.00  0.00    +0.034 C 
ATOM     18  C   UNL     1      -5.476  -1.479   2.323  0.00  0.00    -0.019 C 
ATOM     19  C   UNL     1      -4.781  -1.570   3.455  0.00  0.00    -0.015 C 
ATOM     20  C   UNL     1      -3.291  -1.681   3.385  0.00  0.00    +0.111 C 
ENDROOT
BRANCH   8  21
ATOM     21  C   UNL     1       1.697   0.764  -0.751  0.00  0.00    +0.136 C 
ATOM     22  C   UNL     1       1.963   0.619   0.802  0.00  0.00    +0.034 C 
ATOM     23  C   UNL     1       3.453   0.700   1.173  0.00  0.00    +0.008 C 
ATOM     24  C   UNL     1       4.178  -0.651   1.133  0.00  0.00    +0.088 C 
ATOM     25  N   UNL     1       5.603  -0.421   0.849  0.00  0.00    -0.299 NA
ATOM     26  C   UNL     1       6.151   0.836   1.445  0.00  0.00    +0.119 C 
ATOM     27  C   UNL     1       5.386   1.335   2.734  0.00  0.00    +0.079 C 
ATOM     28  C   UNL     1       3.819   1.368   2.502  0.00  0.00    +0.041 C 
ATOM     29  C   UNL     1       5.931  -0.569  -0.596  0.00  0.00    +0.089 C 
ATOM     30  C   UNL     1       4.986   0.151  -1.619  0.00  0.00    +0.053 C 
ATOM     31  C   UNL     1       3.706  -0.623  -1.919  0.00  0.00    -0.016 A 
ATOM     32  C   UNL     1       2.353  -0.428  -1.495  0.00  0.00    +0.042 A 
ATOM     33  N   UNL     1       1.626  -1.532  -1.821  0.00  0.00    -0.357 N 
ATOM     34  C   UNL     1       2.441  -2.369  -2.473  0.00  0.00    +0.047 A 
ATOM     35  C   UNL     1       2.111  -3.618  -2.997  0.00  0.00    +0.026 A 
ATOM     36  C   UNL     1       3.125  -4.351  -3.637  0.00  0.00    +0.002 A 
ATOM     37  C   UNL     1       4.430  -3.826  -3.731  0.00  0.00    +0.001 A 
ATOM     38  C   UNL     1       4.731  -2.566  -3.186  0.00  0.00    +0.010 A 
ATOM     39  C   UNL     1       3.703  -1.852  -2.562  0.00  0.00    +0.003 A 
ATOM     40  H   UNL     1       0.621  -1.718  -1.601  0.00  0.00    +0.166 HD
BRANCH  27  41
ATOM     41  O   UNL     1       5.828   2.648   2.995  0.00  0.00    -0.387 OA
ATOM     42  H   UNL     1       5.370   2.966   3.817  0.00  0.00    +0.210 HD
ENDBRANCH  27  41
BRANCH  27  43
ATOM     43  C   UNL     1       5.721   0.431   3.963  0.00  0.00    +0.032 C 
ATOM     44  C   UNL     1       7.180   0.505   4.425  0.00  0.00    +0.007 C 
ENDBRANCH  27  43
BRANCH  21  45
ATOM     45  C   UNL     1       2.230   2.110  -1.235  0.00  0.00    +0.323 C 
ATOM     46  O   UNL     1       2.723   2.235  -2.392  0.00  0.00    -0.249 OA
BRANCH  45  47
ATOM     47  O   UNL     1       2.109   3.231  -0.404  0.00  0.00    -0.467 OA
ATOM     48  C   UNL     1       2.632   4.504  -0.758  0.00  0.00    +0.280 C 
ENDBRANCH  45  47
ENDBRANCH  21  45
ENDBRANCH   8  21
BRANCH  15  49
ATOM     49  C   UNL     1      -6.947   1.000  -1.138  0.00  0.00    +0.247 C 
ATOM     50  N   UNL     1      -7.363   2.368  -1.194  0.00  0.00    -0.327 N 
ATOM     51  O   UNL     1      -7.465   0.194  -1.957  0.00  0.00    -0.273 OA
ATOM     52  H   UNL     1      -6.925   3.097  -0.588  0.00  0.00    +0.145 HD
ATOM     53  H   UNL     1      -6.940   3.118  -0.600  0.00  0.00    +0.145 HD
ENDBRANCH  15  49
BRANCH   9  54
ATOM     54  O   UNL     1       0.683   0.827  -3.469  0.00  0.00    -0.495 OA
ATOM     55  C   UNL     1       0.380   0.770  -4.858  0.00  0.00    +0.277 C 
ENDBRANCH   9  54
BRANCH  15  56
ATOM     56  O   UNL     1      -6.356   0.867   1.157  0.00  0.00    -0.375 OA
ATOM     57  H   UNL     1      -6.354   1.853   1.258  0.00  0.00    +0.211 HD
ENDBRANCH  15  56
BRANCH  16  58
ATOM     58  O   UNL     1      -6.972  -1.641  -0.080  0.00  0.00    -0.387 OA
ATOM     59  H   UNL     1      -7.138  -2.129  -0.930  0.00  0.00    +0.210 HD
ENDBRANCH  16  58
BRANCH  17  60
ATOM     60  C   UNL     1      -4.461  -3.084   0.647  0.00  0.00    +0.012 C 
ATOM     61  C   UNL     1      -5.534  -4.112   1.032  0.00  0.00    +0.005 C 
ENDBRANCH  17  60
TORSDOF 10
