REMARK  Name = 
REMARK  18 active torsions:
REMARK  status: ('A' for Active; 'I' for Inactive)
REMARK    1  A    between atoms: N_2  and  C_3
REMARK    2  A    between atoms: C_6  and  O_7
REMARK    3  A    between atoms: O_7  and  C_8
REMARK    4  A    between atoms: C_9  and  C_34
REMARK    5  A    between atoms: C_19  and  C_20
REMARK    6  A    between atoms: C_20  and  C_21
REMARK    7  A    between atoms: C_22  and  O_23
REMARK    8  A    between atoms: O_23  and  C_24
REMARK    9  A    between atoms: C_24  and  C_25
REMARK   10  A    between atoms: C_27  and  O_28
REMARK   11  A    between atoms: C_27  and  C_29
REMARK   12  A    between atoms: C_29  and  O_31
REMARK   13  A    between atoms: O_31  and  C_32
REMARK   14  A    between atoms: C_34  and  C_54
REMARK   15  A    between atoms: C_40  and  C_41
REMARK   16  A    between atoms: C_41  and  C_42
REMARK   17  A    between atoms: C_54  and  O_56
REMARK   18  A    between atoms: O_56  and  C_57
REMARK                            x       y       z     vdW  Elec       q    Type
REMARK                         _______ _______ _______ _____ _____    ______ ____
ROOT
ATOM      1  C   UNL     1       3.453  -1.358   0.792  0.00  0.00    +0.132 C 
ATOM      2  N   UNL     1       2.650  -2.213  -0.119  0.00  0.00    -0.325 N 
ATOM      3  C   UNL     1       3.081  -3.537  -0.576  0.00  0.00    +0.129 C 
ATOM      4  C   UNL     1       1.283  -1.945   0.206  0.00  0.00    +0.037 A 
ATOM      5  C   UNL     1       0.155  -2.648  -0.229  0.00  0.00    +0.069 A 
ATOM      6  C   UNL     1      -1.130  -2.240   0.206  0.00  0.00    +0.126 A 
ATOM      7  C   UNL     1      -1.282  -1.080   1.036  0.00  0.00    +0.017 A 
ATOM      8  C   UNL     1      -0.099  -0.450   1.496  0.00  0.00    +0.014 A 
ATOM      9  C   UNL     1       1.155  -0.893   1.061  0.00  0.00    -0.016 A 
ATOM     10  C   UNL     1       2.489  -0.222   1.262  0.00  0.00    +0.037 C 
ATOM     11  C   UNL     1       2.721   0.191   2.734  0.00  0.00    +0.030 C 
ATOM     12  C   UNL     1       2.863   1.700   2.707  0.00  0.00    +0.086 C 
ATOM     13  N   UNL     1       2.237   2.155   1.464  0.00  0.00    -0.294 NA
ATOM     14  C   UNL     1       2.610   3.524   1.087  0.00  0.00    +0.111 C 
ATOM     15  C   UNL     1       4.024   3.575   0.621  0.00  0.00    -0.015 C 
ATOM     16  C   UNL     1       4.520   2.576  -0.103  0.00  0.00    -0.018 C 
ATOM     17  C   UNL     1       3.648   1.419  -0.599  0.00  0.00    +0.045 C 
ATOM     18  C   UNL     1       4.532   0.151  -0.942  0.00  0.00    +0.232 C 
ATOM     19  C   UNL     1       4.802  -0.842   0.218  0.00  0.00    +0.219 C 
ATOM     20  C   UNL     1       2.464   1.111   0.442  0.00  0.00    +0.083 C 
ENDROOT
BRANCH   7  21
ATOM     21  C   UNL     1      -2.674  -0.656   1.575  0.00  0.00    +0.136 C 
ATOM     22  C   UNL     1      -2.784   0.814   2.129  0.00  0.00    +0.038 C 
ATOM     23  C   UNL     1      -2.918   2.018   1.146  0.00  0.00    +0.027 C 
ATOM     24  C   UNL     1      -1.953   2.051  -0.061  0.00  0.00    +0.092 C 
ATOM     25  N   UNL     1      -2.592   1.676  -1.331  0.00  0.00    -0.294 NA
ATOM     26  C   UNL     1      -3.801   2.461  -1.644  0.00  0.00    +0.115 C 
ATOM     27  C   UNL     1      -4.762   2.558  -0.483  0.00  0.00    -0.059 C 
ATOM     28  C   UNL     1      -4.359   2.301   0.775  0.00  0.00    -0.022 C 
ATOM     29  C   UNL     1      -2.669   0.229  -1.601  0.00  0.00    +0.122 C 
ATOM     30  C   UNL     1      -3.757  -0.471  -0.826  0.00  0.00    -0.004 A 
ATOM     31  C   UNL     1      -3.792  -0.814   0.541  0.00  0.00    +0.043 A 
ATOM     32  N   UNL     1      -5.029  -1.276   0.859  0.00  0.00    -0.357 N 
ATOM     33  C   UNL     1      -5.735  -1.304  -0.276  0.00  0.00    +0.047 A 
ATOM     34  C   UNL     1      -7.050  -1.735  -0.435  0.00  0.00    +0.026 A 
ATOM     35  C   UNL     1      -7.610  -1.686  -1.722  0.00  0.00    +0.002 A 
ATOM     36  C   UNL     1      -6.850  -1.216  -2.816  0.00  0.00    +0.001 A 
ATOM     37  C   UNL     1      -5.522  -0.779  -2.624  0.00  0.00    +0.010 A 
ATOM     38  C   UNL     1      -4.997  -0.831  -1.329  0.00  0.00    +0.004 A 
ATOM     39  H   UNL     1      -5.377  -1.556   1.801  0.00  0.00    +0.166 HD
BRANCH  27  40
ATOM     40  C   UNL     1      -6.144   3.123  -0.725  0.00  0.00    +0.028 C 
ATOM     41  C   UNL     1      -7.115   2.042  -1.185  0.00  0.00    +0.008 C 
ENDBRANCH  27  40
BRANCH  21  42
ATOM     42  C   UNL     1      -2.907  -1.625   2.732  0.00  0.00    +0.323 C 
ATOM     43  O   UNL     1      -2.668  -1.274   3.920  0.00  0.00    -0.249 OA
BRANCH  42  44
ATOM     44  O   UNL     1      -3.263  -2.952   2.459  0.00  0.00    -0.467 OA
ATOM     45  C   UNL     1      -3.338  -3.948   3.469  0.00  0.00    +0.280 C 
ENDBRANCH  42  44
ENDBRANCH  21  42
ENDBRANCH   7  21
BRANCH   6  46
ATOM     46  O   UNL     1      -2.269  -2.977  -0.159  0.00  0.00    -0.495 OA
ATOM     47  C   UNL     1      -2.288  -4.067  -1.072  0.00  0.00    +0.277 C 
ENDBRANCH   6  46
BRANCH  17  48
ATOM     48  C   UNL     1       2.974   1.919  -1.938  0.00  0.00    +0.013 C 
ATOM     49  C   UNL     1       3.932   2.339  -3.066  0.00  0.00    +0.005 C 
ENDBRANCH  17  48
BRANCH  19  50
ATOM     50  O   UNL     1       5.528  -1.925  -0.319  0.00  0.00    -0.373 OA
ATOM     51  H   UNL     1       5.661  -2.599   0.398  0.00  0.00    +0.211 HD
ENDBRANCH  19  50
BRANCH  19  52
ATOM     52  C   UNL     1       5.665  -0.265   1.341  0.00  0.00    +0.345 C 
ATOM     53  O   UNL     1       6.180   0.885   1.266  0.00  0.00    -0.247 OA
BRANCH  52  54
ATOM     54  O   UNL     1       5.967  -1.079   2.440  0.00  0.00    -0.466 OA
ATOM     55  C   UNL     1       6.783  -0.636   3.521  0.00  0.00    +0.280 C 
ENDBRANCH  52  54
ENDBRANCH  19  52
BRANCH  18  56
ATOM     56  O   UNL     1       5.782   0.565  -1.517  0.00  0.00    -0.457 OA
BRANCH  56  57
ATOM     57  C   UNL     1       6.507  -0.156  -2.480  0.00  0.00    +0.304 C 
ATOM     58  C   UNL     1       7.785   0.399  -3.000  0.00  0.00    +0.136 C 
ATOM     59  O   UNL     1       6.060  -1.237  -2.953  0.00  0.00    -0.251 OA
ENDBRANCH  56  57
ENDBRANCH  18  56
TORSDOF 11
