REMARK  Name = 
REMARK  5 active torsions:
REMARK  status: ('A' for Active; 'I' for Inactive)
REMARK    1  A    between atoms: C_1  and  S_2
REMARK    2  A    between atoms: S_2  and  C_5
REMARK    3  A    between atoms: C_9  and  C_12
REMARK    4  A    between atoms: N_14  and  C_15
REMARK    5  A    between atoms: C_20  and  C_22
REMARK                            x       y       z     vdW  Elec       q    Type
REMARK                         _______ _______ _______ _____ _____    ______ ____
ROOT
ATOM      1  C   UNL     1       0.652   0.814   0.072  0.00  0.00    +0.250 C 
ATOM      2  O   UNL     1      -0.127   1.256   0.959  0.00  0.00    -0.270 OA
ATOM      3  N   UNL     1       0.149   0.436  -1.221  0.00  0.00    -0.281 N 
ATOM      4  H   UNL     1       0.834   0.148  -1.956  0.00  0.00    +0.155 HD
ENDROOT
BRANCH   1   9
ATOM      5  C   UNL     1       4.805   0.360   1.046  0.00  0.00    +0.089 A 
ATOM      6  C   UNL     1       4.439   1.066  -0.106  0.00  0.00    +0.047 A 
ATOM      7  C   UNL     1       3.089   1.235  -0.438  0.00  0.00    +0.055 A 
ATOM      8 CL   UNL     1       2.699   2.223  -1.844  0.00  0.00    -0.083 Cl
ATOM      9  C   UNL     1       2.088   0.677   0.386  0.00  0.00    +0.055 A 
ATOM     10  C   UNL     1       2.463  -0.017   1.546  0.00  0.00    +0.016 A 
ATOM     11  C   UNL     1       3.812  -0.182   1.870  0.00  0.00    +0.028 A 
BRANCH   5  13
ATOM     12  C   UNL     1       7.111  -1.332   0.650  0.00  0.00    +0.200 C 
ATOM     13  S   UNL     1       6.506   0.139   1.445  0.00  0.00    -0.006 S 
ATOM     14  O   UNL     1       6.669   0.009   2.933  0.00  0.00    -0.170 OA
ATOM     15  O   UNL     1       7.297   1.327   0.975  0.00  0.00    -0.170 OA
ENDBRANCH   5  13
ENDBRANCH   1   9
BRANCH   3  16
ATOM     16  C   UNL     1      -1.235   0.515  -1.600  0.00  0.00    +0.034 A 
ATOM     17  C   UNL     1      -1.567   0.924  -2.897  0.00  0.00    +0.025 A 
ATOM     18  C   UNL     1      -2.901   0.991  -3.297  0.00  0.00    +0.022 A 
ATOM     19  C   UNL     1      -3.927   0.638  -2.414  0.00  0.00    +0.050 A 
ATOM     20 CL   UNL     1      -5.583   0.689  -3.011  0.00  0.00    -0.083 Cl
ATOM     21  C   UNL     1      -3.611   0.199  -1.108  0.00  0.00    +0.020 A 
ATOM     22  C   UNL     1      -2.260   0.133  -0.718  0.00  0.00    +0.034 A 
BRANCH  21  23
ATOM     23  C   UNL     1      -4.668  -0.184  -0.142  0.00  0.00    +0.072 A 
ATOM     24  C   UNL     1      -4.547  -1.347   0.637  0.00  0.00    +0.028 A 
ATOM     25  C   UNL     1      -5.553  -1.670   1.550  0.00  0.00    +0.004 A 
ATOM     26  C   UNL     1      -6.665  -0.838   1.683  0.00  0.00    +0.020 A 
ATOM     27  C   UNL     1      -6.754   0.312   0.896  0.00  0.00    +0.111 A 
ATOM     28  N   UNL     1      -5.764   0.611   0.013  0.00  0.00    -0.255 NA
ENDBRANCH  21  23
ENDBRANCH   3  16
TORSDOF 4
