REMARK  Name = 
REMARK  11 active torsions:
REMARK  status: ('A' for Active; 'I' for Inactive)
REMARK    1  A    between atoms: C_1  and  C_2
REMARK    2  A    between atoms: C_2  and  C_6
REMARK    3  A    between atoms: C_3  and  C_4
REMARK    4  A    between atoms: C_4  and  O_5
REMARK    5  A    between atoms: C_7  and  C_8
REMARK    6  A    between atoms: C_9  and  C_10
REMARK    7  A    between atoms: C_9  and  C_11
REMARK    8  A    between atoms: C_12  and  C_13
REMARK    9  A    between atoms: C_14  and  C_15
REMARK   10  A    between atoms: C_19  and  C_20
REMARK   11  A    between atoms: C_19  and  C_21
REMARK                            x       y       z     vdW  Elec       q    Type
REMARK                         _______ _______ _______ _____ _____    ______ ____
ROOT
ATOM      1  C   UNL     1       2.328  -2.186   1.755  0.00  0.00    +0.003 C 
ATOM      2  C   UNL     1       1.258  -2.629   1.065  0.00  0.00    -0.050 C 
ATOM      3  C   UNL     1       1.158  -4.097   0.740  0.00  0.00    +0.044 C 
ENDROOT
BRANCH   1   5
ATOM      4  C   UNL     1       2.629   0.162   1.076  0.00  0.00    +0.003 C 
ATOM      5  C   UNL     1       2.610  -0.766   2.044  0.00  0.00    +0.001 C 
BRANCH   4   7
ATOM      6  C   UNL     1       3.495   2.043   2.648  0.00  0.00    +0.043 C 
ATOM      7  C   UNL     1       2.956   1.594   1.308  0.00  0.00    -0.052 C 
ATOM      8  C   UNL     1       2.705   2.465   0.308  0.00  0.00    +0.004 C 
BRANCH   8   9
ATOM      9  C   UNL     1       2.914   3.950   0.395  0.00  0.00    +0.183 C 
BRANCH   9  10
ATOM     10  O   UNL     1       2.087   4.490   1.387  0.00  0.00    -0.391 OA
ATOM     11  H   UNL     1       2.304   5.457   1.433  0.00  0.00    +0.210 HD
ENDBRANCH   9  10
ENDBRANCH   8   9
ENDBRANCH   4   7
ENDBRANCH   1   5
BRANCH   2  12
ATOM     12  C   UNL     1       0.167  -1.710   0.656  0.00  0.00    +0.003 C 
ATOM     13  C   UNL     1      -0.572  -1.914  -0.439  0.00  0.00    +0.004 C 
BRANCH  13  14
ATOM     14  C   UNL     1      -1.708  -1.028  -0.789  0.00  0.00    -0.043 C 
ATOM     15  C   UNL     1      -2.972  -1.425  -0.475  0.00  0.00    -0.069 C 
ATOM     16  C   UNL     1      -3.219  -2.747   0.213  0.00  0.00    +0.039 C 
ATOM     17  C   UNL     1      -4.198  -0.643  -0.900  0.00  0.00    +0.031 C 
ATOM     18  C   UNL     1      -3.905   0.809  -1.265  0.00  0.00    +0.005 C 
ATOM     19  C   UNL     1      -2.681   0.880  -2.172  0.00  0.00    +0.011 C 
ATOM     20  C   UNL     1      -1.417   0.323  -1.465  0.00  0.00    -0.010 C 
ATOM     21  C   UNL     1      -0.926   1.337  -0.405  0.00  0.00    +0.016 C 
ATOM     22  C   UNL     1      -0.314   0.162  -2.535  0.00  0.00    +0.016 C 
ENDBRANCH  13  14
ENDBRANCH   2  12
TORSDOF 6
