REMARK  Name = 
REMARK  6 active torsions:
REMARK  status: ('A' for Active; 'I' for Inactive)
REMARK    1  A    between atoms: C_1  and  C_9
REMARK    2  A    between atoms: C_5  and  O_6
REMARK    3  A    between atoms: C_7  and  O_8
REMARK    4  A    between atoms: C_9  and  O_10
REMARK    5  A    between atoms: C_9  and  C_11
REMARK    6  A    between atoms: C_11  and  O_12
REMARK                            x       y       z     vdW  Elec       q    Type
REMARK                         _______ _______ _______ _____ _____    ______ ____
ROOT
ATOM      1  C   UNL     1       0.046  -0.928   0.542  0.00  0.00    +0.276 C 
ATOM      2  O   UNL     1       0.334  -1.548  -0.714  0.00  0.00    -0.445 OA
ATOM      3  C   UNL     1       1.489  -0.994  -1.237  0.00  0.00    +0.378 C 
ATOM      4  O   UNL     1       2.003  -1.330  -2.336  0.00  0.00    -0.241 OA
ATOM      5  C   UNL     1       1.993   0.014  -0.338  0.00  0.00    +0.244 C 
ATOM      6  C   UNL     1       1.177   0.068   0.699  0.00  0.00    +0.186 C 
ENDROOT
BRANCH   5   7
ATOM      7  O   UNL     1       3.134   0.791  -0.511  0.00  0.00    -0.499 OA
ATOM      8  H   UNL     1       3.711   0.687  -1.336  0.00  0.00    +0.293 HD
ENDBRANCH   5   7
BRANCH   6   9
ATOM      9  O   UNL     1       1.367   0.911   1.789  0.00  0.00    -0.504 OA
ATOM     10  H   UNL     1       0.739   0.889   2.582  0.00  0.00    +0.292 HD
ENDBRANCH   6   9
BRANCH   1  11
ATOM     11  C   UNL     1      -1.361  -0.291   0.536  0.00  0.00    +0.188 C 
BRANCH  11  12
ATOM     12  O   UNL     1      -1.652   0.192   1.822  0.00  0.00    -0.385 OA
ATOM     13  H   UNL     1      -2.638   0.287   1.881  0.00  0.00    +0.210 HD
ENDBRANCH  11  12
BRANCH  11  14
ATOM     14  C   UNL     1      -1.524   0.848  -0.493  0.00  0.00    +0.191 C 
BRANCH  14  15
ATOM     15  O   UNL     1      -1.357   0.378  -1.803  0.00  0.00    -0.392 OA
ATOM     16  H   UNL     1      -2.174  -0.141  -2.026  0.00  0.00    +0.210 HD
ENDBRANCH  14  15
ENDBRANCH  11  14
ENDBRANCH   1  11
TORSDOF 6
