REMARK  Name = 
REMARK  13 active torsions:
REMARK  status: ('A' for Active; 'I' for Inactive)
REMARK    1  A    between atoms: C_4  and  C_5
REMARK    2  A    between atoms: C_5  and  C_6
REMARK    3  A    between atoms: C_18  and  C_24
REMARK    4  A    between atoms: C_19  and  O_20
REMARK    5  A    between atoms: O_20  and  C_21
REMARK    6  A    between atoms: C_29  and  C_30
REMARK    7  A    between atoms: C_30  and  O_32
REMARK    8  A    between atoms: O_32  and  C_33
REMARK    9  A    between atoms: N_46  and  C_47
REMARK   10  A    between atoms: C_50  and  C_51
REMARK   11  A    between atoms: C_52  and  C_54
REMARK   12  A    between atoms: C_54  and  O_56
REMARK   13  A    between atoms: O_56  and  C_57
REMARK                            x       y       z     vdW  Elec       q    Type
REMARK                         _______ _______ _______ _____ _____    ______ ____
ROOT
ATOM      1  C   UNL     1       1.830   0.438   1.620  0.00  0.00    +0.005 C 
ATOM      2  C   UNL     1       1.598   1.192   2.836  0.00  0.00    +0.010 C 
ATOM      3  C   UNL     1       0.687   2.237   2.309  0.00  0.00    +0.008 C 
ATOM      4  C   UNL     1       0.924   1.801   0.538  0.00  0.00    +0.082 C 
ATOM      5  N   UNL     1       1.826   2.448  -0.357  0.00  0.00    -0.297 NA
ATOM      6  C   UNL     1       2.638   1.373   0.173  0.00  0.00    +0.088 C 
ATOM      7  C   UNL     1       0.695   2.453  -1.290  0.00  0.00    +0.089 C 
ATOM      8  C   UNL     1       0.735   1.237  -2.202  0.00  0.00    +0.053 C 
ATOM      9  C   UNL     1      -0.291   0.222  -1.741  0.00  0.00    -0.017 A 
ATOM     10  C   UNL     1      -0.025  -0.606  -0.675  0.00  0.00    +0.039 A 
ATOM     11  N   UNL     1      -1.065  -1.574  -0.603  0.00  0.00    -0.357 N 
ATOM     12  C   UNL     1      -2.323  -1.052  -1.328  0.00  0.00    +0.047 A 
ATOM     13  C   UNL     1      -4.068  -1.490  -1.573  0.00  0.00    +0.034 A 
ATOM     14  C   UNL     1      -5.553  -0.915  -2.383  0.00  0.00    +0.005 A 
ATOM     15  C   UNL     1      -4.385   0.332  -2.670  0.00  0.00    +0.125 A 
ATOM     16  C   UNL     1      -2.700   0.837  -2.536  0.00  0.00    +0.056 A 
ATOM     17  C   UNL     1      -1.714   0.083  -1.911  0.00  0.00    +0.007 A 
ATOM     18  C   UNL     1       1.266  -0.287   0.092  0.00  0.00    +0.124 C 
ATOM     19  C   UNL     1       1.707  -0.961   1.403  0.00  0.00    +0.030 C 
ATOM     20  H   UNL     1      -0.988  -2.449  -0.076  0.00  0.00    +0.166 HD
ENDROOT
BRANCH  14  21
ATOM     21  C   UNL     1      -7.557  -1.532  -2.757  0.00  0.00    +0.070 C 
ATOM     22  C   UNL     1      -7.463  -1.012  -1.430  0.00  0.00    +0.023 C 
ATOM     23  C   UNL     1      -7.919  -0.419  -2.869  0.00  0.00    +0.032 C 
ATOM     24  C   UNL     1      -9.287  -0.719  -1.852  0.00  0.00    +0.122 C 
ATOM     25  C   UNL     1      -9.591  -2.643  -2.303  0.00  0.00    +0.075 C 
ATOM     26  C   UNL     1     -11.060  -2.757  -2.091  0.00  0.00    +0.057 C 
ATOM     27  C   UNL     1     -11.293  -1.741  -3.157  0.00  0.00    -0.017 A 
ATOM     28  C   UNL     1      -9.643  -1.303  -3.785  0.00  0.00    +0.028 A 
ATOM     29  N   UNL     1     -11.512  -1.351  -4.242  0.00  0.00    -0.357 N 
ATOM     30  C   UNL     1     -12.771  -0.235  -4.511  0.00  0.00    +0.047 A 
ATOM     31  C   UNL     1     -13.116   0.973  -5.189  0.00  0.00    +0.026 A 
ATOM     32  C   UNL     1     -12.531   2.195  -4.789  0.00  0.00    +0.002 A 
ATOM     33  C   UNL     1     -11.715   2.360  -3.735  0.00  0.00    +0.001 A 
ATOM     34  C   UNL     1     -11.932   1.451  -2.771  0.00  0.00    +0.010 A 
ATOM     35  C   UNL     1     -12.407  -0.171  -3.225  0.00  0.00    +0.003 A 
ATOM     36  N   UNL     1      -9.230  -3.411  -3.876  0.00  0.00    -0.297 NA
ATOM     37  C   UNL     1     -10.187  -2.964  -5.217  0.00  0.00    +0.105 C 
ATOM     38  C   UNL     1      -7.896  -2.960  -4.421  0.00  0.00    +0.115 C 
ATOM     39  C   UNL     1      -7.683  -1.315  -4.676  0.00  0.00    -0.056 C 
ATOM     40  C   UNL     1      -8.172  -0.530  -5.607  0.00  0.00    -0.029 C 
ATOM     41  C   UNL     1      -8.404   0.857  -5.191  0.00  0.00    +0.035 C 
ATOM     42  H   UNL     1     -12.353  -1.932  -4.852  0.00  0.00    +0.166 HD
BRANCH  24  43
ATOM     43  C   UNL     1     -10.452  -0.085  -2.284  0.00  0.00    +0.312 C 
ATOM     44  O   UNL     1     -10.436   0.409  -3.516  0.00  0.00    -0.250 OA
BRANCH  43  45
ATOM     45  O   UNL     1     -11.434  -0.395  -1.165  0.00  0.00    -0.468 OA
ATOM     46  C   UNL     1     -12.944  -0.168  -1.030  0.00  0.00    +0.280 C 
ENDBRANCH  43  45
ENDBRANCH  24  43
ENDBRANCH  14  21
BRANCH   3  47
ATOM     47  C   UNL     1      -0.768   1.898   2.416  0.00  0.00    +0.002 C 
ATOM     48  C   UNL     1      -1.082   1.207   3.705  0.00  0.00    +0.004 C 
ENDBRANCH   3  47
BRANCH  15  49
ATOM     49  O   UNL     1      -4.752   1.446  -3.422  0.00  0.00    -0.495 OA
ATOM     50  C   UNL     1      -5.057   0.759  -4.584  0.00  0.00    +0.277 C 
ENDBRANCH  15  49
BRANCH  18  51
ATOM     51  C   UNL     1       2.160  -1.814  -0.806  0.00  0.00    +0.320 C 
ATOM     52  O   UNL     1       2.365  -1.951  -2.016  0.00  0.00    -0.250 OA
BRANCH  51  53
ATOM     53  O   UNL     1       2.374  -3.193  -0.117  0.00  0.00    -0.467 OA
ATOM     54  C   UNL     1       3.025  -4.546  -0.874  0.00  0.00    +0.280 C 
ENDBRANCH  51  53
ENDBRANCH  18  51
TORSDOF 7
