REMARK  Name = 
REMARK  12 active torsions:
REMARK  status: ('A' for Active; 'I' for Inactive)
REMARK    1  A    between atoms: O_1  and  C_2
REMARK    2  A    between atoms: C_2  and  CA_3
REMARK    3  A    between atoms: CA_3  and  CB_4
REMARK    4  A    between atoms: CA_3  and  N_6
REMARK    5  A    between atoms: CB_4  and  OG_5
REMARK    6  A    between atoms: N_6  and  C_7
REMARK    7  A    between atoms: C_9  and  O_10
REMARK    8  A    between atoms: C_9  and  C_11
REMARK    9  A    between atoms: C_11  and  O_12
REMARK   10  A    between atoms: C_13  and  O_14
REMARK   11  A    between atoms: C_15  and  O_16
REMARK   12  A    between atoms: C_17  and  O_18
REMARK                            x       y       z     vdW  Elec       q    Type
REMARK                         _______ _______ _______ _____ _____    ______ ____
ROOT
ATOM      1  C   UNK A   0       0.241   0.145  -0.308  0.00  0.00    +0.088 C 
ATOM      2  C   UNK A   0      -0.608   0.777   0.818  0.00  0.00    +0.061 C 
ATOM      3  C   UNK A   0      -2.100   0.314   0.780  0.00  0.00    +0.119 C 
ATOM      4  C   UNK A   0      -2.539  -0.089  -0.672  0.00  0.00    +0.179 C 
ATOM      5  C   UNK A   0      -1.832   0.787  -1.732  0.00  0.00    +0.176 C 
ATOM      6  C   UNK A   0      -0.289   0.579  -1.706  0.00  0.00    +0.162 C 
ENDROOT
BRANCH   1   7
ATOM      7  N   SER A   1       1.674   0.487  -0.177  0.00  0.00    -0.304 NA
ATOM      8  H   SER A   1       1.755   1.466   0.188  0.00  0.00    +0.123 HD
BRANCH   7   9
ATOM      9  CA  SER A   1       2.415  -0.450   0.696  0.00  0.00    +0.105 C 
BRANCH   9  10
ATOM     10  C   SER A   1       2.842  -1.700  -0.098  0.00  0.00    +0.176 C 
BRANCH  10  11
ATOM     11  O   SER A   1       3.510  -1.332  -1.275  0.00  0.00    -0.393 OA
ATOM     12  H   SER A   1       3.756  -2.180  -1.728  0.00  0.00    +0.209 HD
ENDBRANCH  10  11
ENDBRANCH   9  10
BRANCH   9  13
ATOM     13  CB  SER A   1       3.641   0.240   1.335  0.00  0.00    +0.176 C 
BRANCH  13  14
ATOM     14  OG  SER A   1       4.542   0.695   0.360  0.00  0.00    -0.393 OA
ATOM     15  H   SER A   1       4.209   1.577   0.048  0.00  0.00    +0.209 HD
ENDBRANCH  13  14
ENDBRANCH   9  13
ENDBRANCH   7   9
ENDBRANCH   1   7
BRANCH   3  16
ATOM     16  O   UNK A   0      -2.882   1.400   1.229  0.00  0.00    -0.384 OA
ATOM     17  H   UNK A   0      -3.805   1.078   1.406  0.00  0.00    +0.210 HD
ENDBRANCH   3  16
BRANCH   4  18
ATOM     18  O   UNK A   0      -3.934   0.024  -0.808  0.00  0.00    -0.386 OA
ATOM     19  H   UNK A   0      -4.213  -0.605  -1.524  0.00  0.00    +0.210 HD
ENDBRANCH   4  18
BRANCH   5  20
ATOM     20  O   UNK A   0      -2.338   0.539  -3.021  0.00  0.00    -0.387 OA
ATOM     21  H   UNK A   0      -2.215  -0.427  -3.212  0.00  0.00    +0.210 HD
ENDBRANCH   5  20
BRANCH   6  22
ATOM     22  O   UNK A   0       0.363   1.734  -2.178  0.00  0.00    -0.388 OA
ATOM     23  H   UNK A   0       0.183   2.467  -1.532  0.00  0.00    +0.210 HD
ENDBRANCH   6  22
BRANCH   3  24
ATOM     24  C   UNK A   0      -2.295  -0.904   1.726  0.00  0.00    +0.193 C 
BRANCH  24  25
ATOM     25  O   UNK A   0      -2.046  -0.555   3.063  0.00  0.00    -0.392 OA
ATOM     26  H   UNK A   0      -2.878  -0.142   3.413  0.00  0.00    +0.210 HD
ENDBRANCH  24  25
ENDBRANCH   3  24
TORSDOF 12
