REMARK  Name = 
REMARK  9 active torsions:
REMARK  status: ('A' for Active; 'I' for Inactive)
REMARK    1  A    between atoms: O_1  and  N_2
REMARK    2  A    between atoms: C_3  and  C_5
REMARK    3  A    between atoms: C_5  and  C_6
REMARK    4  A    between atoms: C_6  and  C_7
REMARK    5  A    between atoms: C_7  and  C_8
REMARK    6  A    between atoms: C_8  and  C_9
REMARK    7  A    between atoms: C_9  and  C_10
REMARK    8  A    between atoms: C_10  and  C_11
REMARK    9  A    between atoms: N_13  and  C_14
REMARK                            x       y       z     vdW  Elec       q    Type
REMARK                         _______ _______ _______ _____ _____    ______ ____
ROOT
ATOM      1  C   UNL     1       0.493   0.651  -2.014  0.00  0.00    +0.009 C 
ENDROOT
BRANCH   1   2
ATOM      2  C   UNL     1       0.748  -0.227  -0.780  0.00  0.00    +0.000 C 
BRANCH   2   3
ATOM      3  C   UNL     1       2.115   0.082  -0.159  0.00  0.00    +0.000 C 
BRANCH   3   4
ATOM      4  C   UNL     1       2.368  -0.793   1.078  0.00  0.00    +0.009 C 
BRANCH   4   5
ATOM      5  C   UNL     1       3.693  -0.453   1.771  0.00  0.00    +0.098 C 
BRANCH   5   7
ATOM      6  N   UNL     1       5.537   0.139   0.120  0.00  0.00    -0.197 N 
ATOM      7  C   UNL     1       4.876  -0.837   0.931  0.00  0.00    +0.235 C 
ATOM      8  O   UNL     1       5.267  -2.035   0.915  0.00  0.00    -0.274 OA
ATOM      9  H   UNL     1       5.215   1.133   0.127  0.00  0.00    +0.182 HD
BRANCH   6  10
ATOM     10  O   UNL     1       6.594  -0.207  -0.652  0.00  0.00    -0.295 OA
ATOM     11  H   UNL     1       6.199  -0.450  -1.528  0.00  0.00    +0.241 HD
ENDBRANCH   6  10
ENDBRANCH   5   7
ENDBRANCH   4   5
ENDBRANCH   3   4
ENDBRANCH   2   3
ENDBRANCH   1   2
BRANCH   1  12
ATOM     12  C   UNL     1      -0.834   0.311  -2.706  0.00  0.00    +0.096 C 
BRANCH  12  13
ATOM     13  C   UNL     1      -2.011   0.671  -1.848  0.00  0.00    +0.217 C 
ATOM     14  O   UNL     1      -2.432   1.859  -1.844  0.00  0.00    -0.275 OA
ATOM     15  N   UNL     1      -2.646  -0.332  -1.038  0.00  0.00    -0.285 N 
ATOM     16  H   UNL     1      -2.487  -1.335  -1.287  0.00  0.00    +0.155 HD
BRANCH  15  17
ATOM     17  C   UNL     1      -3.536  -0.039   0.052  0.00  0.00    +0.033 A 
ATOM     18  C   UNL     1      -3.357   1.099   0.860  0.00  0.00    +0.023 A 
ATOM     19  C   UNL     1      -4.222   1.345   1.932  0.00  0.00    +0.002 A 
ATOM     20  C   UNL     1      -5.260   0.454   2.214  0.00  0.00    +0.000 A 
ATOM     21  C   UNL     1      -5.431  -0.690   1.430  0.00  0.00    +0.002 A 
ATOM     22  C   UNL     1      -4.568  -0.940   0.358  0.00  0.00    +0.023 A 
ENDBRANCH  15  17
ENDBRANCH  12  13
ENDBRANCH   1  12
TORSDOF 9
