REMARK  Name = 
REMARK  7 active torsions:
REMARK  status: ('A' for Active; 'I' for Inactive)
REMARK    1  A    between atoms: C_1  and  C_2
REMARK    2  A    between atoms: C_2  and  C_3
REMARK    3  A    between atoms: C_2  and  C_10
REMARK    4  A    between atoms: C_10  and  O_11
REMARK    5  A    between atoms: C_10  and  C_12
REMARK    6  A    between atoms: C_10  and  C_18
REMARK    7  A    between atoms: C_12  and  N_13
REMARK                            x       y       z     vdW  Elec       q    Type
REMARK                         _______ _______ _______ _____ _____    ______ ____
ROOT
ATOM      1  C   UNL     1      -0.524   0.292  -1.377  0.00  0.00    +0.121 C 
ENDROOT
BRANCH   1   2
ATOM      2  C   UNL     1      -1.487  -0.491  -0.433  0.00  0.00    +0.022 A 
ATOM      3  C   UNL     1      -1.326  -0.538   0.981  0.00  0.00    +0.132 A 
ATOM      4  F   UNL     1      -0.254   0.001   1.603  0.00  0.00    -0.205 F 
ATOM      5  C   UNL     1      -2.234  -1.234   1.786  0.00  0.00    +0.077 A 
ATOM      6  C   UNL     1      -3.304  -1.918   1.219  0.00  0.00    +0.126 A 
ATOM      7  F   UNL     1      -4.174  -2.595   2.009  0.00  0.00    -0.205 F 
ATOM      8  C   UNL     1      -3.461  -1.931  -0.163  0.00  0.00    +0.039 A 
ATOM      9  C   UNL     1      -2.563  -1.240  -0.979  0.00  0.00    +0.012 A 
ENDBRANCH   1   2
BRANCH   1  11
ATOM     10  C   UNL     1       1.892   0.358  -2.379  0.00  0.00    +0.017 C 
ATOM     11  C   UNL     1       0.895  -0.406  -1.486  0.00  0.00    +0.076 C 
BRANCH  11  12
ATOM     12  C   UNL     1       1.518  -0.985  -0.219  0.00  0.00    +0.085 A 
ATOM     13  N   UNL     1       1.043  -2.186   0.220  0.00  0.00    -0.237 NA
ATOM     14  C   UNL     1       1.531  -2.789   1.333  0.00  0.00    +0.221 A 
ATOM     15  N   UNL     1       2.530  -2.205   2.039  0.00  0.00    -0.241 NA
ATOM     16  C   UNL     1       3.060  -1.022   1.640  0.00  0.00    +0.152 A 
ATOM     17  C   UNL     1       2.579  -0.387   0.494  0.00  0.00    +0.163 A 
ATOM     18  F   UNL     1       3.189   0.748   0.083  0.00  0.00    -0.202 F 
ENDBRANCH  11  12
ENDBRANCH   1  11
BRANCH   1  19
ATOM     19  O   UNL     1      -1.031   0.205  -2.699  0.00  0.00    -0.381 OA
ATOM     20  H   UNL     1      -1.896   0.691  -2.760  0.00  0.00    +0.211 HD
ENDBRANCH   1  19
BRANCH   1  21
ATOM     21  C   UNL     1      -0.505   1.839  -1.067  0.00  0.00    +0.185 C 
BRANCH  21  22
ATOM     22  N   UNL     1      -0.035   2.261   0.250  0.00  0.00    -0.249 N 
ATOM     23  C   UNL     1       1.169   2.784   0.541  0.00  0.00    +0.219 A 
ATOM     24  N   UNL     1       1.190   3.312   1.780  0.00  0.00    -0.223 NA
ATOM     25  C   UNL     1      -0.075   3.107   2.204  0.00  0.00    +0.244 A 
ATOM     26  N   UNL     1      -0.837   2.506   1.272  0.00  0.00    -0.158 NA
ENDBRANCH  21  22
ENDBRANCH   1  21
TORSDOF 6
