REMARK  Name = 
REMARK  6 active torsions:
REMARK  status: ('A' for Active; 'I' for Inactive)
REMARK    1  A    between atoms: C_1  and  C_2
REMARK    2  A    between atoms: C_2  and  C_4
REMARK    3  A    between atoms: C_4  and  C_5
REMARK    4  A    between atoms: C_5  and  C_6
REMARK    5  A    between atoms: C_5  and  C_12
REMARK    6  A    between atoms: C_13  and  O_14
REMARK                            x       y       z     vdW  Elec       q    Type
REMARK                         _______ _______ _______ _____ _____    ______ ____
ROOT
ATOM      1  C   UNL     1       0.052   0.080   0.050  0.00  0.00    +0.087 A 
ATOM      2  C   UNL     1       1.200  -0.043   0.865  0.00  0.00    +0.138 A 
ATOM      3  C   UNL     1       2.480  -0.075   0.261  0.00  0.00    +0.059 A 
ATOM      4  C   UNL     1       2.554   0.032  -1.148  0.00  0.00    +0.143 A 
ATOM      5  O   UNL     1       1.452   0.158  -1.874  0.00  0.00    -0.422 OA
ATOM      6  C   UNL     1       0.236   0.188  -1.346  0.00  0.00    +0.345 A 
ATOM      7  O   UNL     1      -0.750   0.319  -2.118  0.00  0.00    -0.245 OA
ATOM      8  C   UNL     1       3.793   0.008  -1.796  0.00  0.00    +0.047 A 
ATOM      9  C   UNL     1       4.970  -0.123  -1.058  0.00  0.00    +0.004 A 
ATOM     10  C   UNL     1       4.913  -0.232   0.331  0.00  0.00    +0.001 A 
ATOM     11  C   UNL     1       3.681  -0.209   0.992  0.00  0.00    +0.015 A 
ENDROOT
BRANCH   2  12
ATOM     12  O   UNL     1       1.031  -0.121   2.253  0.00  0.00    -0.506 OA
ATOM     13  H   UNL     1       1.782  -0.187   2.924  0.00  0.00    +0.292 HD
ENDBRANCH   2  12
BRANCH   1  14
ATOM     14  C   UNL     1      -1.344   0.139   0.674  0.00  0.00    +0.067 C 
BRANCH  14  15
ATOM     15  C   UNL     1      -2.235  -0.965   0.117  0.00  0.00    -0.039 A 
ATOM     16  C   UNL     1      -1.993  -2.291   0.522  0.00  0.00    +0.004 A 
ATOM     17  C   UNL     1      -2.767  -3.342   0.023  0.00  0.00    +0.000 A 
ATOM     18  C   UNL     1      -3.789  -3.086  -0.892  0.00  0.00    +0.000 A 
ATOM     19  C   UNL     1      -4.037  -1.779  -1.312  0.00  0.00    +0.000 A 
ATOM     20  C   UNL     1      -3.266  -0.722  -0.817  0.00  0.00    +0.004 A 
ENDBRANCH  14  15
BRANCH  14  21
ATOM     21  C   UNL     1      -1.942   1.562   0.574  0.00  0.00    +0.087 C 
BRANCH  21  23
ATOM     22  C   UNL     1      -0.242   3.555   0.701  0.00  0.00    +0.086 C 
ATOM     23  C   UNL     1      -1.132   2.552   1.374  0.00  0.00    +0.131 C 
ATOM     24  O   UNL     1      -1.194   2.535   2.594  0.00  0.00    -0.298 OA
ENDBRANCH  21  23
ENDBRANCH  14  21
ENDBRANCH   1  14
TORSDOF 5
