REMARK  Name = 
REMARK  22 active torsions:
REMARK  status: ('A' for Active; 'I' for Inactive)
REMARK    1  A    between atoms: C_1  and  C_2
REMARK    2  A    between atoms: C_2  and  C_3
REMARK    3  A    between atoms: C_4  and  C_5
REMARK    4  A    between atoms: C_6  and  C_7
REMARK    5  A    between atoms: C_6  and  C_8
REMARK    6  A    between atoms: C_9  and  C_10
REMARK    7  A    between atoms: C_11  and  C_12
REMARK    8  A    between atoms: C_14  and  O_15
REMARK    9  A    between atoms: C_17  and  C_18
REMARK   10  A    between atoms: C_17  and  C_19
REMARK   11  A    between atoms: C_20  and  C_21
REMARK   12  A    between atoms: C_22  and  C_23
REMARK   13  A    between atoms: C_24  and  C_25
REMARK   14  A    between atoms: C_24  and  C_26
REMARK   15  A    between atoms: C_27  and  C_28
REMARK   16  A    between atoms: C_29  and  C_30
REMARK   17  A    between atoms: C_29  and  C_31
REMARK   18  A    between atoms: C_32  and  C_33
REMARK   19  A    between atoms: C_34  and  C_35
REMARK   20  A    between atoms: C_37  and  O_38
REMARK   21  A    between atoms: C_40  and  C_41
REMARK   22  A    between atoms: C_40  and  C_42
REMARK                            x       y       z     vdW  Elec       q    Type
REMARK                         _______ _______ _______ _____ _____    ______ ____
ROOT
ATOM      1  C   UNL     1       1.044   0.558   0.599  0.00  0.00    +0.000 C 
ATOM      2  C   UNL     1       0.290  -0.542   0.693  0.00  0.00    +0.000 C 
ENDROOT
BRANCH   1   5
ATOM      3  C   UNL     1       2.774   2.931   1.063  0.00  0.00    +0.044 C 
ATOM      4  C   UNL     1       3.324   1.521   0.960  0.00  0.00    -0.050 C 
ATOM      5  C   UNL     1       2.507   0.470   0.769  0.00  0.00    +0.003 C 
BRANCH   4   6
ATOM      6  C   UNL     1       4.790   1.256   0.914  0.00  0.00    +0.003 C 
ATOM      7  C   UNL     1       5.734   2.066   1.412  0.00  0.00    +0.001 C 
BRANCH   7   8
ATOM      8  C   UNL     1       7.160   1.676   1.329  0.00  0.00    +0.003 C 
ATOM      9  C   UNL     1       8.161   2.344   1.934  0.00  0.00    -0.051 C 
ATOM     10  C   UNL     1       7.921   3.548   2.804  0.00  0.00    +0.044 C 
BRANCH   9  11
ATOM     11  C   UNL     1       9.538   1.827   1.812  0.00  0.00    -0.000 C 
ATOM     12  C   UNL     1      10.269   1.893   0.690  0.00  0.00    -0.018 C 
BRANCH  12  13
ATOM     13  C   UNL     1       9.851   2.636  -0.572  0.00  0.00    +0.043 C 
ATOM     14  C   UNL     1       9.964   1.738  -1.803  0.00  0.00    -0.067 C 
ATOM     15  C   UNL     1       9.567   0.280  -1.729  0.00  0.00    +0.039 C 
ATOM     16  C   UNL     1      10.255   2.239  -3.024  0.00  0.00    +0.003 C 
ATOM     17  C   UNL     1      10.614   3.682  -3.288  0.00  0.00    +0.138 C 
ATOM     18  C   UNL     1      10.294   4.604  -2.101  0.00  0.00    +0.042 C 
ATOM     19  C   UNL     1      10.652   3.975  -0.730  0.00  0.00    -0.022 C 
ATOM     20  C   UNL     1      12.185   3.758  -0.617  0.00  0.00    +0.012 C 
ATOM     21  C   UNL     1      10.225   4.971   0.371  0.00  0.00    +0.012 C 
BRANCH  17  22
ATOM     22  O   UNL     1      11.976   3.784  -3.610  0.00  0.00    -0.388 OA
ATOM     23  H   UNL     1      12.087   3.382  -4.512  0.00  0.00    +0.210 HD
ENDBRANCH  17  22
ENDBRANCH  12  13
ENDBRANCH   9  11
ENDBRANCH   7   8
ENDBRANCH   4   6
ENDBRANCH   1   5
BRANCH   2  24
ATOM     24  C   UNL     1      -1.163  -0.499   0.417  0.00  0.00    +0.003 C 
ATOM     25  C   UNL     1      -1.994  -1.541   0.621  0.00  0.00    -0.050 C 
ATOM     26  C   UNL     1      -1.493  -2.851   1.192  0.00  0.00    +0.044 C 
BRANCH  25  27
ATOM     27  C   UNL     1      -3.406  -1.409   0.190  0.00  0.00    +0.003 C 
ATOM     28  C   UNL     1      -4.418  -2.021   0.818  0.00  0.00    +0.001 C 
BRANCH  28  29
ATOM     29  C   UNL     1      -5.785  -1.990   0.252  0.00  0.00    +0.003 C 
ATOM     30  C   UNL     1      -6.847  -2.613   0.803  0.00  0.00    -0.050 C 
ATOM     31  C   UNL     1      -6.729  -3.387   2.097  0.00  0.00    +0.044 C 
BRANCH  30  32
ATOM     32  C   UNL     1      -8.136  -2.569   0.070  0.00  0.00    +0.003 C 
ATOM     33  C   UNL     1      -9.325  -2.622   0.681  0.00  0.00    +0.004 C 
BRANCH  33  34
ATOM     34  C   UNL     1     -10.588  -2.743  -0.087  0.00  0.00    -0.043 C 
ATOM     35  C   UNL     1     -11.028  -1.732  -0.881  0.00  0.00    -0.067 C 
ATOM     36  C   UNL     1     -10.253  -0.443  -1.015  0.00  0.00    +0.039 C 
ATOM     37  C   UNL     1     -12.404  -1.772  -1.518  0.00  0.00    +0.062 C 
ATOM     38  C   UNL     1     -13.003  -3.179  -1.770  0.00  0.00    +0.119 C 
ATOM     39  C   UNL     1     -12.166  -4.331  -1.190  0.00  0.00    +0.042 C 
ATOM     40  C   UNL     1     -11.458  -3.978   0.137  0.00  0.00    -0.008 C 
ATOM     41  C   UNL     1     -10.607  -5.208   0.542  0.00  0.00    +0.016 C 
ATOM     42  C   UNL     1     -12.476  -3.699   1.260  0.00  0.00    +0.016 C 
BRANCH  38  43
ATOM     43  O   UNL     1     -14.311  -3.251  -1.255  0.00  0.00    -0.391 OA
ATOM     44  H   UNL     1     -14.890  -2.720  -1.867  0.00  0.00    +0.210 HD
ENDBRANCH  38  43
ENDBRANCH  33  34
ENDBRANCH  30  32
ENDBRANCH  28  29
ENDBRANCH  25  27
ENDBRANCH   2  24
TORSDOF 12
