REMARK  Name = 
REMARK  13 active torsions:
REMARK  status: ('A' for Active; 'I' for Inactive)
REMARK    1  A    between atoms: C_1  and  C_2
REMARK    2  A    between atoms: C_2  and  O_3
REMARK    3  A    between atoms: O_3  and  C_4
REMARK    4  A    between atoms: C_4  and  C_6
REMARK    5  A    between atoms: C_6  and  N_7
REMARK    6  A    between atoms: N_7  and  C_8
REMARK    7  A    between atoms: C_8  and  C_9
REMARK    8  A    between atoms: C_8  and  C_29
REMARK    9  A    between atoms: C_14  and  C_15
REMARK   10  A    between atoms: N_17  and  C_18
REMARK   11  A    between atoms: C_18  and  C_19
REMARK   12  A    between atoms: C_22  and  C_25
REMARK   13  A    between atoms: N_27  and  O_28
REMARK                            x       y       z     vdW  Elec       q    Type
REMARK                         _______ _______ _______ _____ _____    ______ ____
ROOT
ATOM      1  C   UNL     1      -1.066   1.938   1.551  0.00  0.00    +0.233 C 
ATOM      2  O   UNL     1      -0.940   2.685   2.556  0.00  0.00    -0.274 OA
ATOM      3  N   UNL     1       0.067   1.746   0.694  0.00  0.00    -0.289 N 
ATOM      4  C   UNL     1       1.297   2.514   0.411  0.00  0.00    +0.111 C 
ATOM      5  C   UNL     1       1.819   1.609  -0.658  0.00  0.00    +0.051 C 
ATOM      6  C   UNL     1       0.585   0.817  -0.336  0.00  0.00    +0.163 C 
ENDROOT
BRANCH   6   7
ATOM      7  C   UNL     1       0.925  -0.534   0.245  0.00  0.00    +0.234 C 
ATOM      8  O   UNL     1       1.065  -0.672   1.493  0.00  0.00    -0.274 OA
ATOM      9  N   UNL     1       1.159  -1.643  -0.633  0.00  0.00    -0.310 N 
ATOM     10  H   UNL     1       0.899  -1.556  -1.641  0.00  0.00    +0.149 HD
BRANCH   9  11
ATOM     11  C   UNL     1       1.924  -2.815  -0.215  0.00  0.00    +0.139 C 
BRANCH  11  12
ATOM     12  C   UNL     1       3.380  -2.450  -0.090  0.00  0.00    -0.030 A 
ATOM     13  C   UNL     1       4.168  -2.316  -1.241  0.00  0.00    +0.006 A 
ATOM     14  C   UNL     1       5.492  -1.876  -1.145  0.00  0.00    +0.012 A 
ATOM     15  C   UNL     1       6.048  -1.544   0.106  0.00  0.00    +0.018 A 
ATOM     16  C   UNL     1       5.255  -1.694   1.258  0.00  0.00    +0.012 A 
ATOM     17  C   UNL     1       3.934  -2.143   1.161  0.00  0.00    +0.006 A 
BRANCH  15  18
ATOM     18  C   UNL     1       7.431  -1.007   0.206  0.00  0.00    +0.162 C 
ATOM     19  N   UNL     1       7.956  -0.643   1.490  0.00  0.00    -0.340 N 
ATOM     20  N   UNL     1       8.142  -0.850  -0.873  0.00  0.00    -0.072 NA
ATOM     21  H   UNL     1       8.848  -0.110   1.597  0.00  0.00    +0.144 HD
ATOM     22  H   UNL     1       8.847  -0.112   1.590  0.00  0.00    +0.144 HD
BRANCH  20  23
ATOM     23  O   UNL     1       9.425  -0.353  -0.850  0.00  0.00    -0.408 OA
ATOM     24  H   UNL     1       9.951  -0.278  -1.710  0.00  0.00    +0.328 HD
ENDBRANCH  20  23
ENDBRANCH  15  18
ENDBRANCH  11  12
ENDBRANCH   9  11
ENDBRANCH   6   7
BRANCH   1  25
ATOM     25  C   UNL     1      -2.433   1.372   1.237  0.00  0.00    +0.144 C 
BRANCH  25  26
ATOM     26  C   UNL     1      -3.212   2.216   0.165  0.00  0.00    +0.015 C 
ATOM     27  C   UNL     1      -2.626   2.163  -1.265  0.00  0.00    +0.005 C 
ATOM     28  C   UNL     1      -3.570   2.833  -2.291  0.00  0.00    +0.000 C 
ATOM     29  C   UNL     1      -4.457   3.941  -1.691  0.00  0.00    +0.000 C 
ATOM     30  C   UNL     1      -3.751   4.658  -0.539  0.00  0.00    +0.000 C 
ATOM     31  C   UNL     1      -3.390   3.697   0.614  0.00  0.00    +0.005 C 
ENDBRANCH  25  26
BRANCH  25  32
ATOM     32  N   UNL     1      -2.337  -0.071   0.926  0.00  0.00    -0.296 NA
ATOM     33  H   UNL     1      -1.869  -0.219   0.007  0.00  0.00    +0.123 HD
BRANCH  32  34
ATOM     34  C   UNL     1      -3.650  -0.733   0.878  0.00  0.00    +0.203 C 
BRANCH  34  35
ATOM     35  C   UNL     1      -3.489  -2.217   0.960  0.00  0.00    +0.321 C 
ATOM     36  O   UNL     1      -2.534  -2.783   0.357  0.00  0.00    -0.249 OA
BRANCH  35  37
ATOM     37  O   UNL     1      -4.443  -2.973   1.647  0.00  0.00    -0.464 OA
BRANCH  37  39
ATOM     38  C   UNL     1      -4.974  -4.886   0.244  0.00  0.00    +0.048 C 
ATOM     39  C   UNL     1      -4.490  -4.401   1.609  0.00  0.00    +0.229 C 
ENDBRANCH  37  39
ENDBRANCH  35  37
ENDBRANCH  34  35
ENDBRANCH  32  34
ENDBRANCH  25  32
ENDBRANCH   1  25
TORSDOF 12
