REMARK  Name = 
REMARK  8 active torsions:
REMARK  status: ('A' for Active; 'I' for Inactive)
REMARK    1  A    between atoms: C_1  and  C_2
REMARK    2  A    between atoms: C_4  and  C_15
REMARK    3  A    between atoms: C_6  and  C_7
REMARK    4  A    between atoms: C_8  and  C_9
REMARK    5  A    between atoms: C_9  and  C_10
REMARK    6  A    between atoms: C_15  and  C_16
REMARK    7  A    between atoms: C_15  and  C_17
REMARK    8  A    between atoms: C_15  and  C_18
REMARK                            x       y       z     vdW  Elec       q    Type
REMARK                         _______ _______ _______ _____ _____    ______ ____
ROOT
ATOM      1  C   UNL     1      -0.374  -1.215   2.560  0.00  0.00    +0.044 C 
ATOM      2  C   UNL     1       0.085  -0.842   1.171  0.00  0.00    -0.046 A 
ATOM      3  C   UNL     1       1.344  -0.241   1.026  0.00  0.00    +0.007 A 
ATOM      4  C   UNL     1       1.851   0.129  -0.234  0.00  0.00    -0.041 A 
ATOM      5  C   UNL     1       1.048  -0.124  -1.365  0.00  0.00    +0.007 A 
ATOM      6  C   UNL     1      -0.215  -0.726  -1.251  0.00  0.00    -0.046 A 
ATOM      7  C   UNL     1      -1.011  -0.973  -2.511  0.00  0.00    +0.044 C 
ATOM      8  C   UNL     1      -0.704  -1.113   0.023  0.00  0.00    -0.035 A 
ENDROOT
BRANCH   4   9
ATOM      9  C   UNL     1       3.245   0.789  -0.329  0.00  0.00    -0.013 C 
ATOM     10  C   UNL     1       3.659   1.137  -1.779  0.00  0.00    +0.015 C 
ATOM     11  C   UNL     1       4.311  -0.171   0.243  0.00  0.00    +0.015 C 
ATOM     12  C   UNL     1       3.249   2.103   0.484  0.00  0.00    +0.015 C 
ENDBRANCH   4   9
BRANCH   8  13
ATOM     13  C   UNL     1      -2.073  -1.762   0.153  0.00  0.00    +0.106 C 
BRANCH  13  14
ATOM     14  C   UNL     1      -3.173  -0.743   0.107  0.00  0.00    +0.094 C 
ATOM     15  N   UNL     1      -4.313  -0.988  -0.439  0.00  0.00    -0.272 NA
ATOM     16  C   UNL     1      -5.192   0.165  -0.285  0.00  0.00    +0.162 C 
ATOM     17  C   UNL     1      -4.370   1.192   0.509  0.00  0.00    +0.126 C 
ATOM     18  N   UNL     1      -3.100   0.530   0.722  0.00  0.00    -0.331 N 
ATOM     19  H   UNL     1      -2.279   0.934   1.225  0.00  0.00    +0.147 HD
ENDBRANCH  13  14
ENDBRANCH   8  13
TORSDOF 3
