REMARK  Name = 
REMARK  4 active torsions:
REMARK  status: ('A' for Active; 'I' for Inactive)
REMARK    1  A    between atoms: C_4  and  O_5
REMARK    2  A    between atoms: C_6  and  C_7
REMARK    3  A    between atoms: C_7  and  O_9
REMARK    4  A    between atoms: O_9  and  C_10
REMARK                            x       y       z     vdW  Elec       q    Type
REMARK                         _______ _______ _______ _____ _____    ______ ____
ROOT
ATOM      1  C   UNL     1      -1.728  -1.685   0.229  0.00  0.00    +0.007 C 
ATOM      2  C   UNL     1      -2.801  -2.500  -0.529  0.00  0.00    +0.007 C 
ATOM      3  C   UNL     1      -4.099  -1.690  -0.781  0.00  0.00    +0.032 C 
ATOM      4  C   UNL     1      -4.285  -0.541   0.231  0.00  0.00    +0.129 C 
ATOM      5  C   UNL     1      -3.081   0.463   0.207  0.00  0.00    +0.130 C 
ATOM      6  C   UNL     1      -1.763  -0.223  -0.252  0.00  0.00    +0.011 C 
ATOM      7  C   UNL     1      -0.500   0.491   0.237  0.00  0.00    +0.030 C 
ATOM      8  C   UNL     1       0.732  -0.120  -0.473  0.00  0.00    +0.104 C 
ATOM      9  N   UNL     1       0.568  -1.577  -0.808  0.00  0.00    -0.293 NA
ATOM     10  C   UNL     1       1.819  -2.367  -1.067  0.00  0.00    +0.090 C 
ATOM     11  C   UNL     1       3.121  -1.546  -1.177  0.00  0.00    +0.053 C 
ATOM     12  C   UNL     1       3.142  -0.541  -0.084  0.00  0.00    -0.016 A 
ATOM     13  C   UNL     1       2.007   0.135   0.272  0.00  0.00    +0.038 A 
ATOM     14  N   UNL     1       2.293   1.184   1.080  0.00  0.00    -0.356 N 
ATOM     15  C   UNL     1       3.630   1.144   1.244  0.00  0.00    +0.047 A 
ATOM     16  C   UNL     1       4.421   2.049   1.952  0.00  0.00    +0.026 A 
ATOM     17  C   UNL     1       5.816   1.864   1.925  0.00  0.00    +0.002 A 
ATOM     18  C   UNL     1       6.386   0.803   1.185  0.00  0.00    +0.001 A 
ATOM     19  C   UNL     1       5.566  -0.086   0.466  0.00  0.00    +0.010 A 
ATOM     20  C   UNL     1       4.188   0.108   0.531  0.00  0.00    +0.003 A 
ATOM     21  C   UNL     1      -0.308  -2.303   0.140  0.00  0.00    +0.089 C 
ATOM     22  H   UNL     1       1.637   1.915   1.434  0.00  0.00    +0.166 HD
ENDROOT
BRANCH   4  23
ATOM     23  O   UNL     1      -5.509   0.104  -0.015  0.00  0.00    -0.391 OA
ATOM     24  H   UNL     1      -5.704   0.658   0.786  0.00  0.00    +0.210 HD
ENDBRANCH   4  23
BRANCH   5  25
ATOM     25  C   UNL     1      -3.357   1.672  -0.653  0.00  0.00    +0.313 C 
ATOM     26  O   UNL     1      -3.659   1.529  -1.870  0.00  0.00    -0.250 OA
BRANCH  25  27
ATOM     27  O   UNL     1      -3.257   2.948  -0.092  0.00  0.00    -0.468 OA
ATOM     28  C   UNL     1      -3.483   4.134  -0.844  0.00  0.00    +0.280 C 
ENDBRANCH  25  27
ENDBRANCH   5  25
TORSDOF 3
