REMARK  Name = 
REMARK  12 active torsions:
REMARK  status: ('A' for Active; 'I' for Inactive)
REMARK    1  A    between atoms: C_1  and  O_2
REMARK    2  A    between atoms: O_2  and  C_3
REMARK    3  A    between atoms: C_4  and  C_5
REMARK    4  A    between atoms: C_5  and  C_6
REMARK    5  A    between atoms: N_8  and  C_9
REMARK    6  A    between atoms: C_13  and  N_14
REMARK    7  A    between atoms: C_15  and  O_17
REMARK    8  A    between atoms: O_17  and  C_18
REMARK    9  A    between atoms: C_27  and  C_29
REMARK   10  A    between atoms: N_31  and  S_32
REMARK   11  A    between atoms: S_32  and  C_35
REMARK   12  A    between atoms: C_40  and  C_41
REMARK                            x       y       z     vdW  Elec       q    Type
REMARK                         _______ _______ _______ _____ _____    ______ ____
ROOT
ATOM      1  C   UNL     1       0.452   0.968  -0.708  0.00  0.00    +0.124 A 
ATOM      2  C   UNL     1       0.427   2.096   0.136  0.00  0.00    -0.001 A 
ATOM      3  C   UNL     1       1.627   2.750   0.453  0.00  0.00    +0.008 A 
ATOM      4  C   UNL     1       2.839   2.308  -0.075  0.00  0.00    +0.013 A 
ATOM      5  C   UNL     1       2.880   1.200  -0.936  0.00  0.00    +0.042 A 
ATOM      6  C   UNL     1       1.681   0.532  -1.242  0.00  0.00    +0.059 A 
ENDROOT
BRANCH   5   7
ATOM      7  C   UNL     1       4.168   0.701  -1.473  0.00  0.00    +0.263 C 
ATOM      8  O   UNL     1       4.259  -0.497  -1.856  0.00  0.00    -0.269 OA
ATOM      9  N   UNL     1       5.319   1.555  -1.552  0.00  0.00    -0.181 N 
ATOM     10  H   UNL     1       5.216   2.593  -1.487  0.00  0.00    +0.177 HD
BRANCH   9  11
ATOM     11  S   UNL     1       6.920   0.903  -1.676  0.00  0.00    +0.075 S 
ATOM     12  O   UNL     1       7.896   2.034  -1.847  0.00  0.00    -0.150 OA
ATOM     13  O   UNL     1       6.981   0.011  -2.884  0.00  0.00    -0.150 OA
BRANCH  11  14
ATOM     14  C   UNL     1       7.331   0.004  -0.205  0.00  0.00    +0.111 A 
ATOM     15  C   UNL     1       6.562   0.217   0.952  0.00  0.00    +0.029 A 
ATOM     16  C   UNL     1       6.838  -0.481   2.128  0.00  0.00    +0.002 A 
ATOM     17  C   UNL     1       7.886  -1.398   2.167  0.00  0.00    +0.000 A 
ATOM     18  C   UNL     1       8.673  -1.608   1.034  0.00  0.00    +0.005 A 
ATOM     19  C   UNL     1       8.420  -0.901  -0.156  0.00  0.00    -0.024 A 
ATOM     20  C   UNL     1       9.299  -1.155  -1.352  0.00  0.00    +0.046 C 
ENDBRANCH  11  14
ENDBRANCH   9  11
ENDBRANCH   5   7
BRANCH   1  22
ATOM     21  C   UNL     1      -0.866  -0.886  -1.760  0.00  0.00    +0.277 C 
ATOM     22  O   UNL     1      -0.754   0.302  -0.984  0.00  0.00    -0.495 OA
ENDBRANCH   1  22
BRANCH   2  23
ATOM     23  C   UNL     1      -0.859   2.558   0.774  0.00  0.00    +0.076 C 
BRANCH  23  24
ATOM     24  C   UNL     1      -1.140   1.753   2.010  0.00  0.00    -0.018 A 
ATOM     25  C   UNL     1      -0.434   1.820   3.207  0.00  0.00    +0.090 A 
ATOM     26  N   UNL     1      -0.911   0.904   4.081  0.00  0.00    -0.349 N 
ATOM     27  C   UNL     1      -0.395   0.638   5.421  0.00  0.00    +0.149 C 
ATOM     28  C   UNL     1      -1.903   0.249   3.445  0.00  0.00    +0.049 A 
ATOM     29  C   UNL     1      -2.072   0.742   2.176  0.00  0.00    +0.005 A 
ATOM     30  C   UNL     1      -3.025   0.215   1.304  0.00  0.00    +0.033 A 
ATOM     31  C   UNL     1      -3.839  -0.846   1.764  0.00  0.00    +0.037 A 
ATOM     32  C   UNL     1      -3.641  -1.363   3.067  0.00  0.00    +0.025 A 
ATOM     33  C   UNL     1      -2.671  -0.814   3.922  0.00  0.00    +0.028 A 
BRANCH  31  34
ATOM     34  N   UNL     1      -4.827  -1.454   0.914  0.00  0.00    -0.251 N 
ATOM     35  C   UNL     1      -5.586  -0.755  -0.081  0.00  0.00    +0.405 C 
ATOM     36  O   UNL     1      -5.556   0.504  -0.146  0.00  0.00    -0.226 OA
ATOM     37  H   UNL     1      -5.068  -2.458   1.078  0.00  0.00    +0.158 HD
BRANCH  35  38
ATOM     38  O   UNL     1      -6.410  -1.486  -0.943  0.00  0.00    -0.447 OA
BRANCH  38  39
ATOM     39  C   UNL     1      -7.198  -0.882  -1.968  0.00  0.00    +0.178 C 
ATOM     40  C   UNL     1      -8.160  -1.894  -2.565  0.00  0.00    +0.045 C 
ATOM     41  C   UNL     1      -8.412  -1.420  -3.990  0.00  0.00    +0.004 C 
ATOM     42  C   UNL     1      -7.225  -0.538  -4.375  0.00  0.00    +0.004 C 
ATOM     43  C   UNL     1      -6.340  -0.421  -3.138  0.00  0.00    +0.045 C 
ENDBRANCH  38  39
ENDBRANCH  35  38
ENDBRANCH  31  34
ENDBRANCH  23  24
ENDBRANCH   2  23
TORSDOF 9
