REMARK  Name = 
REMARK  3 active torsions:
REMARK  status: ('A' for Active; 'I' for Inactive)
REMARK    1  A    between atoms: N_6  and  C_9
REMARK    2  A    between atoms: C_12  and  C_13
REMARK    3  A    between atoms: C_13  and  O_14
REMARK                            x       y       z     vdW  Elec       q    Type
REMARK                         _______ _______ _______ _____ _____    ______ ____
ROOT
ATOM      1  N   UNL     1      -5.028   0.736  -0.284  0.00  0.00    -0.343 N 
ATOM      2  C   UNL     1      -3.654   0.354  -0.264  0.00  0.00    +0.123 A 
ATOM      3  N   UNL     1      -2.719   1.184   0.264  0.00  0.00    -0.178 NA
ATOM      4  C   UNL     1      -1.404   0.842   0.295  0.00  0.00    +0.352 A 
ATOM      5  O   UNL     1      -0.576   1.657   0.783  0.00  0.00    -0.244 OA
ATOM      6  N   UNL     1      -0.992  -0.371  -0.205  0.00  0.00    -0.273 N 
ATOM      7  C   UNL     1      -1.915  -1.216  -0.759  0.00  0.00    +0.096 A 
ATOM      8  C   UNL     1      -3.264  -0.872  -0.793  0.00  0.00    +0.061 A 
ATOM      9  H   UNL     1      -5.334   1.654   0.108  0.00  0.00    +0.144 HD
ATOM     10  H   UNL     1      -5.334   1.654   0.108  0.00  0.00    +0.144 HD
ENDROOT
BRANCH   6  11
ATOM     11  C   UNL     1       0.431  -0.771  -0.208  0.00  0.00    +0.224 C 
ATOM     12  C   UNL     1       1.200  -0.059  -1.304  0.00  0.00    +0.057 C 
ATOM     13  C   UNL     1       2.591   0.005  -0.745  0.00  0.00    +0.038 C 
ATOM     14  C   UNL     1       2.394  -0.178   0.764  0.00  0.00    +0.146 C 
ATOM     15  O   UNL     1       1.039  -0.477   1.027  0.00  0.00    -0.351 OA
BRANCH  14  16
ATOM     16  C   UNL     1       2.796   1.074   1.556  0.00  0.00    +0.187 C 
BRANCH  16  17
ATOM     17  O   UNL     1       4.166   1.337   1.410  0.00  0.00    -0.392 OA
ATOM     18  H   UNL     1       4.644   0.674   1.974  0.00  0.00    +0.210 HD
ENDBRANCH  16  17
ENDBRANCH  14  16
ENDBRANCH   6  11
TORSDOF 3
