REMARK  Name = 
REMARK  6 active torsions:
REMARK  status: ('A' for Active; 'I' for Inactive)
REMARK    1  A    between atoms: C_1  and  C_2
REMARK    2  A    between atoms: C_2  and  N_3
REMARK    3  A    between atoms: N_3  and  C_7
REMARK    4  A    between atoms: C_4  and  C_5
REMARK    5  A    between atoms: C_11  and  C_13
REMARK    6  A    between atoms: C_18  and  C_22
REMARK                            x       y       z     vdW  Elec       q    Type
REMARK                         _______ _______ _______ _____ _____    ______ ____
ROOT
ATOM      1  C   UNL     1      -1.545  -0.103  -0.520  0.00  0.00    +0.037 A 
ATOM      2  C   UNL     1      -1.762  -1.436  -0.900  0.00  0.00    +0.023 A 
ATOM      3  C   UNL     1      -0.680  -2.301  -1.081  0.00  0.00    +0.002 A 
ATOM      4  C   UNL     1       0.625  -1.844  -0.881  0.00  0.00    +0.010 A 
ATOM      5  C   UNL     1       0.861  -0.514  -0.494  0.00  0.00    +0.002 A 
ATOM      6  C   UNL     1      -0.233   0.353  -0.321  0.00  0.00    +0.033 A 
ENDROOT
BRANCH   5   7
ATOM      7  C   UNL     1       2.245  -0.024  -0.289  0.00  0.00    +0.076 A 
ATOM      8  C   UNL     1       2.659   1.217  -0.812  0.00  0.00    +0.048 A 
ATOM      9  C   UNL     1       3.985   1.643  -0.599  0.00  0.00    +0.115 A 
ATOM     10  N   UNL     1       4.855   0.868   0.110  0.00  0.00    -0.235 NA
ATOM     11  C   UNL     1       4.420  -0.318   0.598  0.00  0.00    +0.174 A 
ATOM     12  C   UNL     1       5.104  -1.233   1.357  0.00  0.00    +0.115 A 
ATOM     13  C   UNL     1       4.169  -2.228   1.610  0.00  0.00    +0.156 A 
ATOM     14  N   UNL     1       2.989  -1.906   1.023  0.00  0.00    -0.172 NA
ATOM     15  N   UNL     1       3.166  -0.747   0.407  0.00  0.00    -0.213 N 
BRANCH  12  16
ATOM     16  C   UNL     1       6.465  -1.169   1.812  0.00  0.00    +0.104 C 
ATOM     17  N   UNL     1       7.562  -1.117   2.178  0.00  0.00    -0.191 NA
ENDBRANCH  12  16
ENDBRANCH   5   7
BRANCH   1  18
ATOM     18  N   UNL     1      -2.662   0.784  -0.324  0.00  0.00    -0.272 N 
ATOM     19  C   UNL     1      -3.587   1.014  -1.412  0.00  0.00    +0.217 C 
ATOM     20  C   UNL     1      -4.857   1.790  -1.226  0.00  0.00    +0.109 C 
ATOM     21  O   UNL     1      -3.312   0.588  -2.567  0.00  0.00    -0.276 OA
BRANCH  18  23
ATOM     22  C   UNL     1      -3.620   0.313   1.895  0.00  0.00    +0.025 C 
ATOM     23  C   UNL     1      -2.892   1.331   1.022  0.00  0.00    +0.110 C 
ENDBRANCH  18  23
ENDBRANCH   1  18
TORSDOF 4
