REMARK  Name = 
REMARK  11 active torsions:
REMARK  status: ('A' for Active; 'I' for Inactive)
REMARK    1  A    between atoms: C_1  and  C_18
REMARK    2  A    between atoms: C_3  and  C_15
REMARK    3  A    between atoms: C_5  and  N_6
REMARK    4  A    between atoms: C_10  and  N_11
REMARK    5  A    between atoms: C_12  and  C_13
REMARK    6  A    between atoms: C_15  and  O_16
REMARK    7  A    between atoms: C_18  and  O_19
REMARK    8  A    between atoms: C_18  and  C_20
REMARK    9  A    between atoms: C_20  and  O_21
REMARK   10  A    between atoms: C_20  and  C_22
REMARK   11  A    between atoms: C_22  and  O_23
REMARK                            x       y       z     vdW  Elec       q    Type
REMARK                         _______ _______ _______ _____ _____    ______ ____
ROOT
ATOM      1  C   UNL     1      -0.818  -0.240  -0.286  0.00  0.00    +0.227 C 
ATOM      2  O   UNL     1      -0.806  -1.670  -0.255  0.00  0.00    -0.478 OA
ATOM      3  C   UNL     1       0.372  -2.429  -0.311  0.00  0.00    +0.203 C 
ATOM      4  C   UNL     1       1.570  -1.828  -0.228  0.00  0.00    +0.054 C 
ATOM      5  C   UNL     1       1.693  -0.323  -0.156  0.00  0.00    +0.159 C 
ATOM      6  C   UNL     1       0.424   0.303   0.455  0.00  0.00    +0.144 C 
ENDROOT
BRANCH   5   7
ATOM      7  N   UNL     1       2.849   0.050   0.661  0.00  0.00    -0.243 NA
ATOM      8  C   UNL     1       4.105  -0.037   0.321  0.00  0.00    +0.188 C 
ATOM      9  N   UNL     1       5.109   0.373   1.248  0.00  0.00    -0.370 N 
ATOM     10  N   UNL     1       4.511  -0.526  -0.962  0.00  0.00    -0.370 N 
ATOM     11  H   UNL     1       4.855   0.741   2.192  0.00  0.00    +0.159 HD
ATOM     12  H   UNL     1       4.854   0.741   2.192  0.00  0.00    +0.159 HD
ATOM     13  H   UNL     1       3.833  -0.845  -1.687  0.00  0.00    +0.159 HD
ATOM     14  H   UNL     1       5.528  -0.574  -1.196  0.00  0.00    +0.159 HD
ENDBRANCH   5   7
BRANCH   6  15
ATOM     15  N   UNL     1       0.489   1.764   0.339  0.00  0.00    -0.307 N 
ATOM     16  C   UNL     1       0.429   2.645   1.470  0.00  0.00    +0.210 C 
ATOM     17  C   UNL     1       0.480   4.123   1.263  0.00  0.00    +0.109 C 
ATOM     18  O   UNL     1       0.347   2.184   2.641  0.00  0.00    -0.276 OA
ATOM     19  H   UNL     1       0.561   2.186  -0.615  0.00  0.00    +0.149 HD
ENDBRANCH   6  15
BRANCH   3  20
ATOM     20  C   UNL     1       0.259  -3.893  -0.425  0.00  0.00    +0.372 C 
ATOM     21  O   UNL     1      -0.880  -4.426  -0.486  0.00  0.00    -0.242 OA
BRANCH  20  22
ATOM     22  O   UNL     1       1.397  -4.695  -0.468  0.00  0.00    -0.475 OA
ATOM     23  H   UNL     1       1.321  -5.702  -0.547  0.00  0.00    +0.296 HD
ENDBRANCH  20  22
ENDBRANCH   3  20
BRANCH   1  24
ATOM     24  C   UNL     1      -2.138   0.284   0.324  0.00  0.00    +0.187 C 
BRANCH  24  25
ATOM     25  O   UNL     1      -2.223  -0.141   1.663  0.00  0.00    -0.385 OA
ATOM     26  H   UNL     1      -2.562   0.625   2.196  0.00  0.00    +0.210 HD
ENDBRANCH  24  25
BRANCH  24  27
ATOM     27  C   UNL     1      -3.373  -0.223  -0.461  0.00  0.00    +0.172 C 
BRANCH  27  28
ATOM     28  O   UNL     1      -3.291   0.190  -1.803  0.00  0.00    -0.387 OA
ATOM     29  H   UNL     1      -2.912  -0.567  -2.321  0.00  0.00    +0.210 HD
ENDBRANCH  27  28
BRANCH  27  30
ATOM     30  C   UNL     1      -4.675   0.329   0.140  0.00  0.00    +0.189 C 
BRANCH  30  31
ATOM     31  O   UNL     1      -5.780  -0.100  -0.609  0.00  0.00    -0.392 OA
ATOM     32  H   UNL     1      -5.928  -1.054  -0.377  0.00  0.00    +0.210 HD
ENDBRANCH  30  31
ENDBRANCH  27  30
ENDBRANCH  24  27
ENDBRANCH   1  24
TORSDOF 10
