REMARK  Name = 
REMARK  5 active torsions:
REMARK  status: ('A' for Active; 'I' for Inactive)
REMARK    1  A    between atoms: C_1  and  C_2
REMARK    2  A    between atoms: N_4  and  C_5
REMARK    3  A    between atoms: C_7  and  N_8
REMARK    4  A    between atoms: C_11  and  C_12
REMARK    5  A    between atoms: C_12  and  O_13
REMARK                            x       y       z     vdW  Elec       q    Type
REMARK                         _______ _______ _______ _____ _____    ______ ____
ROOT
ATOM      1  C   UNL     1       0.136  -0.470  -0.892  0.00  0.00    +0.226 C 
ATOM      2  C   UNL     1       0.977   0.781  -1.157  0.00  0.00    +0.087 C 
ATOM      3  C   UNL     1       2.293   0.484  -0.484  0.00  0.00    +0.178 C 
ATOM      4  C   UNL     1       2.231  -1.021  -0.248  0.00  0.00    +0.173 C 
ATOM      5  O   UNL     1       0.878  -1.375  -0.102  0.00  0.00    -0.349 OA
ENDROOT
BRANCH   1   9
ATOM      6  C   UNL     1      -4.790   0.150  -1.168  0.00  0.00    +0.051 C 
ATOM      7  C   UNL     1      -3.517   0.194  -0.368  0.00  0.00    +0.030 A 
ATOM      8  C   UNL     1      -2.292  -0.144  -0.953  0.00  0.00    +0.101 A 
ATOM      9  N   UNL     1      -1.136  -0.126  -0.222  0.00  0.00    -0.274 N 
ATOM     10  C   UNL     1      -1.177   0.248   1.099  0.00  0.00    +0.331 A 
ATOM     11  O   UNL     1      -0.119   0.302   1.785  0.00  0.00    -0.246 OA
ATOM     12  N   UNL     1      -2.361   0.569   1.686  0.00  0.00    -0.275 N 
ATOM     13  C   UNL     1      -3.526   0.545   0.987  0.00  0.00    +0.257 A 
ATOM     14  O   UNL     1      -4.607   0.843   1.564  0.00  0.00    -0.267 OA
ATOM     15  H   UNL     1      -2.376   0.843   2.696  0.00  0.00    +0.173 HD
ENDBRANCH   1   9
BRANCH   3  16
ATOM     16  N   UNL     1       3.417   0.835  -1.348  0.00  0.00    -0.104 NA
ATOM     17  N   UNL     1       4.278   1.632  -0.977  0.00  0.00    -0.167 NA
ATOM     18  N   UNL     1       5.139   2.428  -0.605  0.00  0.00    +0.068 NA
ENDBRANCH   3  16
BRANCH   4  19
ATOM     19  C   UNL     1       3.012  -1.450   1.002  0.00  0.00    +0.189 C 
BRANCH  19  20
ATOM     20  O   UNL     1       4.371  -1.127   0.878  0.00  0.00    -0.392 OA
ATOM     21  H   UNL     1       4.760  -1.777   0.237  0.00  0.00    +0.210 HD
ENDBRANCH  19  20
ENDBRANCH   4  19
TORSDOF 4
