REMARK  Name = 
REMARK  4 active torsions:
REMARK  status: ('A' for Active; 'I' for Inactive)
REMARK    1  A    between atoms: C_1  and  C_2
REMARK    2  A    between atoms: C_2  and  N_3
REMARK    3  A    between atoms: C_2  and  C_8
REMARK    4  A    between atoms: N_3  and  O_4
REMARK                            x       y       z     vdW  Elec       q    Type
REMARK                         _______ _______ _______ _____ _____    ______ ____
ROOT
ATOM      1  C   UNL     1       1.587   1.702   2.035  0.00  0.00    +0.036 C 
ATOM      2  C   UNL     1       1.605   0.378   1.261  0.00  0.00    +0.140 C 
ENDROOT
BRANCH   2   3
ATOM      3  C   UNL     1       0.214   0.024   0.816  0.00  0.00    +0.013 A 
ATOM      4  C   UNL     1      -0.508   0.660  -0.198  0.00  0.00    +0.021 A 
ATOM      5  C   UNL     1      -1.789   0.121  -0.356  0.00  0.00    -0.010 A 
ATOM      6  C   UNL     1      -2.749   0.535  -1.283  0.00  0.00    +0.009 A 
ATOM      7  C   UNL     1      -3.993  -0.118  -1.306  0.00  0.00    +0.001 A 
ATOM      8  C   UNL     1      -4.264  -1.169  -0.407  0.00  0.00    +0.001 A 
ATOM      9  C   UNL     1      -3.294  -1.576   0.521  0.00  0.00    +0.015 A 
ATOM     10  C   UNL     1      -2.068  -0.915   0.523  0.00  0.00    +0.020 A 
ATOM     11  S   UNL     1      -0.741  -1.186   1.515  0.00  0.00    -0.091 S 
ENDBRANCH   2   3
BRANCH   2  12
ATOM     12  N   UNL     1       2.513   0.429   0.102  0.00  0.00    -0.160 N 
ATOM     13  C   UNL     1       2.910  -0.782  -0.571  0.00  0.00    +0.323 C 
ATOM     14  N   UNL     1       3.792  -0.747  -1.695  0.00  0.00    -0.312 N 
ATOM     15  O   UNL     1       2.479  -1.897  -0.173  0.00  0.00    -0.251 OA
ATOM     16  H   UNL     1       4.175   0.150  -2.065  0.00  0.00    +0.147 HD
ATOM     17  H   UNL     1       4.175   0.150  -2.065  0.00  0.00    +0.147 HD
BRANCH  12  18
ATOM     18  O   UNL     1       3.009   1.620  -0.324  0.00  0.00    -0.291 OA
ATOM     19  H   UNL     1       2.360   1.941  -1.001  0.00  0.00    +0.242 HD
ENDBRANCH  12  18
ENDBRANCH   2  12
TORSDOF 3
