REMARK  Name = 
REMARK  3 active torsions:
REMARK  status: ('A' for Active; 'I' for Inactive)
REMARK    1  A    between atoms: C_3  and  C_4
REMARK    2  A    between atoms: C_4  and  C_5
REMARK    3  A    between atoms: C_5  and  N_6
REMARK                            x       y       z     vdW  Elec       q    Type
REMARK                         _______ _______ _______ _____ _____    ______ ____
ROOT
ATOM      1  N   UNL     1      -0.291  -0.692  -0.689  0.00  0.00    -0.299 NA
ATOM      2  C   UNL     1      -0.572   0.237  -1.799  0.00  0.00    +0.103 C 
ATOM      3  C   UNL     1      -2.080   0.481  -1.869  0.00  0.00    +0.122 C 
ATOM      4  N   UNL     1      -2.823  -0.748  -1.565  0.00  0.00    -0.312 N 
ATOM      5  C   UNL     1      -2.166  -2.053  -1.689  0.00  0.00    +0.122 C 
ATOM      6  C   UNL     1      -0.770  -2.052  -1.024  0.00  0.00    +0.103 C 
ATOM      7  C   UNL     1      -4.255  -0.694  -1.519  0.00  0.00    +0.138 A 
ATOM      8  N   UNL     1      -5.015  -1.258  -2.500  0.00  0.00    -0.194 NA
ATOM      9  S   UNL     1      -6.598  -0.959  -2.069  0.00  0.00    +0.014 S 
ATOM     10  C   UNL     1      -6.343  -0.132  -0.650  0.00  0.00    +0.041 A 
ATOM     11  C   UNL     1      -7.250   0.402   0.260  0.00  0.00    +0.017 A 
ATOM     12  C   UNL     1      -6.734   1.022   1.408  0.00  0.00    +0.001 A 
ATOM     13  C   UNL     1      -5.341   1.083   1.620  0.00  0.00    +0.001 A 
ATOM     14  C   UNL     1      -4.451   0.530   0.681  0.00  0.00    +0.012 A 
ATOM     15  C   UNL     1      -4.972  -0.070  -0.471  0.00  0.00    +0.031 A 
ENDROOT
BRANCH   1  16
ATOM     16  C   UNL     1       1.148  -0.712  -0.350  0.00  0.00    +0.089 C 
BRANCH  16  17
ATOM     17  C   UNL     1       1.470   0.394   0.661  0.00  0.00    +0.052 C 
BRANCH  17  20
ATOM     18 CL   UNL     1       2.232  -1.497   3.061  0.00  0.00    -0.083 Cl
ATOM     19  C   UNL     1       3.358  -0.504   2.141  0.00  0.00    +0.046 A 
ATOM     20  C   UNL     1       2.921   0.333   1.075  0.00  0.00    -0.027 A 
ATOM     21  C   UNL     1       3.870   1.083   0.347  0.00  0.00    +0.011 A 
ATOM     22  C   UNL     1       5.213   1.005   0.707  0.00  0.00    -0.017 A 
ATOM     23  C   UNL     1       6.380   1.704   0.085  0.00  0.00    +0.133 C 
ATOM     24  C   UNL     1       7.486   1.165   0.943  0.00  0.00    +0.222 C 
ATOM     25  O   UNL     1       8.700   1.468   0.804  0.00  0.00    -0.275 OA
ATOM     26  N   UNL     1       7.024   0.262   1.943  0.00  0.00    -0.285 N 
ATOM     27  C   UNL     1       5.624   0.203   1.749  0.00  0.00    +0.038 A 
ATOM     28  C   UNL     1       4.721  -0.562   2.481  0.00  0.00    +0.043 A 
ATOM     29  H   UNL     1       7.594  -0.247   2.654  0.00  0.00    +0.155 HD
ENDBRANCH  17  20
ENDBRANCH  16  17
ENDBRANCH   1  16
TORSDOF 3
