REMARK  Name = 
REMARK  9 active torsions:
REMARK  status: ('A' for Active; 'I' for Inactive)
REMARK    1  A    between atoms: O_1  and  C_2
REMARK    2  A    between atoms: C_2  and  C_3
REMARK    3  A    between atoms: C_2  and  P_9
REMARK    4  A    between atoms: C_2  and  P_13
REMARK    5  A    between atoms: C_3  and  N_4
REMARK    6  A    between atoms: P_9  and  O_10
REMARK    7  A    between atoms: P_9  and  O_11
REMARK    8  A    between atoms: P_13  and  O_14
REMARK    9  A    between atoms: P_13  and  O_15
REMARK                            x       y       z     vdW  Elec       q    Type
REMARK                         _______ _______ _______ _____ _____    ______ ____
ROOT
ATOM      1  C   UNL     1      -0.941  -0.589  -0.128  0.00  0.00    +0.285 C 
ENDROOT
BRANCH   1   2
ATOM      2  O   UNL     1      -1.984  -1.496  -0.386  0.00  0.00    -0.366 OA
ATOM      3  H   UNL     1      -1.958  -1.725  -1.352  0.00  0.00    +0.212 HD
ENDBRANCH   1   2
BRANCH   1   4
ATOM      4  P   UNL     1      -1.068  -0.115   1.638  0.00  0.00    +0.373 P 
ATOM      5  O   UNL     1      -0.747  -1.310   2.508  0.00  0.00    -0.255 OA
BRANCH   4   6
ATOM      6  O   UNL     1       0.002   1.145   2.000  0.00  0.00    -0.322 OA
ATOM      7  H   UNL     1      -0.166   1.354   2.953  0.00  0.00    +0.220 HD
ENDBRANCH   4   6
BRANCH   4   8
ATOM      8  O   UNL     1      -2.645   0.404   1.968  0.00  0.00    -0.322 OA
ATOM      9  H   UNL     1      -3.213  -0.395   1.827  0.00  0.00    +0.220 HD
ENDBRANCH   4   8
ENDBRANCH   1   4
BRANCH   1  10
ATOM     10  P   UNL     1      -1.191   0.905  -1.169  0.00  0.00    +0.373 P 
ATOM     11  O   UNL     1      -0.247   2.012  -0.755  0.00  0.00    -0.255 OA
BRANCH  10  12
ATOM     12  O   UNL     1      -0.915   0.514  -2.793  0.00  0.00    -0.322 OA
ATOM     13  H   UNL     1      -1.125   1.343  -3.292  0.00  0.00    +0.220 HD
ENDBRANCH  10  12
BRANCH  10  14
ATOM     14  O   UNL     1      -2.783   1.452  -0.993  0.00  0.00    -0.322 OA
ATOM     15  H   UNL     1      -3.340   0.749  -1.411  0.00  0.00    +0.220 HD
ENDBRANCH  10  14
ENDBRANCH   1  10
BRANCH   1  16
ATOM     16  C   UNL     1       0.411  -1.290  -0.433  0.00  0.00    +0.183 C 
BRANCH  16  17
ATOM     17  N   UNL     1       1.586  -0.463  -0.146  0.00  0.00    -0.333 N 
ATOM     18  C   UNL     1       2.311  -0.455   0.985  0.00  0.00    +0.107 A 
ATOM     19  C   UNL     1       3.376   0.397   0.799  0.00  0.00    +0.130 A 
ATOM     20  N   UNL     1       3.336   0.906  -0.450  0.00  0.00    -0.244 NA
ATOM     21  C   UNL     1       2.235   0.352  -1.000  0.00  0.00    +0.199 A 
ENDBRANCH  16  17
ENDBRANCH   1  16
TORSDOF 9
