REMARK  Name = 
REMARK  7 active torsions:
REMARK  status: ('A' for Active; 'I' for Inactive)
REMARK    1  A    between atoms: C_1  and  N_2
REMARK    2  A    between atoms: N_2  and  C_3
REMARK    3  A    between atoms: N_2  and  C_4
REMARK    4  A    between atoms: C_4  and  C_5
REMARK    5  A    between atoms: C_5  and  C_6
REMARK    6  A    between atoms: C_12  and  C_13
REMARK    7  A    between atoms: C_13  and  C_14
REMARK                            x       y       z     vdW  Elec       q    Type
REMARK                         _______ _______ _______ _____ _____    ______ ____
ROOT
ATOM      1  C   UNL     1       1.416  -1.599   0.615  0.00  0.00    -0.021 A 
ATOM      2  C   UNL     1       1.624  -2.948   0.883  0.00  0.00    +0.087 A 
ATOM      3  N   UNL     1       0.488  -3.651   0.671  0.00  0.00    -0.360 N 
ATOM      4  C   UNL     1      -0.430  -2.759   0.259  0.00  0.00    +0.047 A 
ATOM      5  C   UNL     1      -1.752  -3.013  -0.099  0.00  0.00    +0.026 A 
ATOM      6  C   UNL     1      -2.539  -1.927  -0.521  0.00  0.00    +0.006 A 
ATOM      7  C   UNL     1      -1.995  -0.618  -0.586  0.00  0.00    -0.045 A 
ATOM      8  C   UNL     1      -0.649  -0.400  -0.215  0.00  0.00    +0.014 A 
ATOM      9  C   UNL     1       0.101  -1.497   0.206  0.00  0.00    +0.003 A 
ATOM     10  H   UNL     1       0.359  -4.680   0.790  0.00  0.00    +0.165 HD
ENDROOT
BRANCH   1  11
ATOM     11  C   UNL     1       2.441  -0.506   0.665  0.00  0.00    +0.052 C 
BRANCH  11  12
ATOM     12  C   UNL     1       3.039  -0.271  -0.736  0.00  0.00    +0.088 C 
BRANCH  12  14
ATOM     13  C   UNL     1       3.442   2.146  -0.508  0.00  0.00    +0.104 C 
ATOM     14  N   UNL     1       4.028   0.828  -0.800  0.00  0.00    -0.308 NA
ATOM     15  C   UNL     1       5.218   0.579   0.029  0.00  0.00    +0.104 C 
ENDBRANCH  12  14
ENDBRANCH  11  12
ENDBRANCH   1  11
BRANCH   7  16
ATOM     16  C   UNL     1      -2.860   0.536  -1.024  0.00  0.00    +0.061 C 
BRANCH  16  17
ATOM     17  C   UNL     1      -3.817   0.980   0.095  0.00  0.00    +0.118 C 
ATOM     18  C   UNL     1      -3.087   1.647   1.299  0.00  0.00    +0.256 C 
ATOM     19  O   UNL     1      -3.682   2.932   1.441  0.00  0.00    -0.449 OA
ATOM     20  C   UNL     1      -4.614   3.116   0.448  0.00  0.00    +0.401 C 
ATOM     21  O   UNL     1      -5.297   4.165   0.318  0.00  0.00    -0.226 OA
ATOM     22  N   UNL     1      -4.728   2.002  -0.404  0.00  0.00    -0.275 N 
ATOM     23  H   UNL     1      -5.410   1.895  -1.187  0.00  0.00    +0.152 HD
ENDBRANCH  16  17
ENDBRANCH   7  16
TORSDOF 5
