REMARK  Name = 
REMARK  7 active torsions:
REMARK  status: ('A' for Active; 'I' for Inactive)
REMARK    1  A    between atoms: C_1  and  N_2
REMARK    2  A    between atoms: N_2  and  C_3
REMARK    3  A    between atoms: C_4  and  C_6
REMARK    4  A    between atoms: C_6  and  C_7
REMARK    5  A    between atoms: C_8  and  C_17
REMARK    6  A    between atoms: C_13  and  C_14
REMARK    7  A    between atoms: C_20  and  C_21
REMARK                            x       y       z     vdW  Elec       q    Type
REMARK                         _______ _______ _______ _____ _____    ______ ____
ROOT
ATOM      1  C   UNL     1       0.124   1.217  -0.304  0.00  0.00    +0.060 A 
ATOM      2  C   UNL     1       0.646   0.255   0.597  0.00  0.00    +0.093 A 
ATOM      3  N   UNL     1       0.383   0.671   1.863  0.00  0.00    -0.228 NA
ATOM      4  C   UNL     1      -0.278   1.830   1.721  0.00  0.00    +0.138 A 
ATOM      5  C   UNL     1      -0.766   2.614   2.766  0.00  0.00    +0.047 A 
ATOM      6  C   UNL     1      -1.462   3.786   2.435  0.00  0.00    +0.008 A 
ATOM      7  C   UNL     1      -1.646   4.148   1.084  0.00  0.00    -0.034 A 
ATOM      8  C   UNL     1      -2.427   5.379   0.732  0.00  0.00    +0.045 C 
ATOM      9  C   UNL     1      -1.136   3.308   0.076  0.00  0.00    +0.096 A 
ATOM     10  N   UNL     1      -0.458   2.183   0.442  0.00  0.00    -0.302 N 
ENDROOT
BRANCH   2  11
ATOM     11  C   UNL     1       1.380  -1.038   0.373  0.00  0.00    +0.002 A 
ATOM     12  C   UNL     1       1.622  -1.611  -0.893  0.00  0.00    +0.010 A 
ATOM     13  C   UNL     1       2.289  -2.832  -1.020  0.00  0.00    +0.004 A 
ATOM     14  C   UNL     1       2.740  -3.516   0.114  0.00  0.00    -0.050 A 
ATOM     15  C   UNL     1       3.415  -4.849  -0.027  0.00  0.00    +0.044 C 
ATOM     16  C   UNL     1       2.509  -2.966   1.378  0.00  0.00    +0.004 A 
ATOM     17  C   UNL     1       1.842  -1.746   1.506  0.00  0.00    +0.010 A 
ENDBRANCH   2  11
BRANCH   1  18
ATOM     18  C   UNL     1       0.049   1.200  -1.810  0.00  0.00    +0.151 C 
BRANCH  18  22
ATOM     19  C   UNL     1      -1.867  -1.568  -1.001  0.00  0.00    +0.131 C 
ATOM     20  N   UNL     1      -1.278  -0.942  -2.182  0.00  0.00    -0.307 N 
ATOM     21  C   UNL     1      -1.162  -1.728  -3.409  0.00  0.00    +0.131 C 
ATOM     22  C   UNL     1      -1.196   0.485  -2.253  0.00  0.00    +0.221 C 
ATOM     23  O   UNL     1      -2.210   1.144  -2.608  0.00  0.00    -0.275 OA
ENDBRANCH  18  22
ENDBRANCH   1  18
TORSDOF 3
