REMARK  Name = 
REMARK  3 active torsions:
REMARK  status: ('A' for Active; 'I' for Inactive)
REMARK    1  A    between atoms: N_1  and  S_2
REMARK    2  A    between atoms: S_2  and  C_5
REMARK    3  A    between atoms: C_5  and  C_6
REMARK                            x       y       z     vdW  Elec       q    Type
REMARK                         _______ _______ _______ _____ _____    ______ ____
ROOT
ATOM      1  C   UNL     1      -0.564   0.032  -0.953  0.00  0.00    +0.114 A 
ATOM      2  N   UNL     1      -0.689   1.237  -1.560  0.00  0.00    -0.080 NA
ATOM      3  O   UNL     1       0.442   1.874  -1.407  0.00  0.00    -0.354 OA
ATOM      4  C   UNL     1       1.286   1.140  -0.724  0.00  0.00    +0.168 A 
ATOM      5  C   UNL     1       2.588   1.444  -0.336  0.00  0.00    +0.049 A 
ATOM      6  C   UNL     1       3.288   0.477   0.412  0.00  0.00    +0.004 A 
ATOM      7  C   UNL     1       2.674  -0.752   0.748  0.00  0.00    +0.001 A 
ATOM      8  C   UNL     1       1.355  -1.027   0.338  0.00  0.00    +0.013 A 
ATOM      9  C   UNL     1       0.696  -0.047  -0.402  0.00  0.00    +0.046 A 
ENDROOT
BRANCH   1  10
ATOM     10  C   UNL     1      -1.663  -0.978  -0.849  0.00  0.00    +0.244 C 
BRANCH  10  11
ATOM     11  S   UNL     1      -2.567  -0.762   0.674  0.00  0.00    +0.033 S 
ATOM     12  O   UNL     1      -1.652  -0.986   1.845  0.00  0.00    -0.158 OA
ATOM     13  O   UNL     1      -3.687  -1.762   0.727  0.00  0.00    -0.158 OA
BRANCH  11  14
ATOM     14  N   UNL     1      -3.227   0.835   0.758  0.00  0.00    -0.208 NA
ATOM     15  H   UNL     1      -3.702   1.019  -0.154  0.00  0.00    +0.144 HD
ATOM     16  H   UNL     1      -2.422   1.499   0.820  0.00  0.00    +0.144 HD
ENDBRANCH  11  14
ENDBRANCH  10  11
ENDBRANCH   1  10
TORSDOF 3
