REMARK  Name = 
REMARK  3 active torsions:
REMARK  status: ('A' for Active; 'I' for Inactive)
REMARK    1  A    between atoms: C_1  and  N_2
REMARK    2  A    between atoms: C_8  and  O_10
REMARK    3  A    between atoms: O_10  and  C_11
REMARK                            x       y       z     vdW  Elec       q    Type
REMARK                         _______ _______ _______ _____ _____    ______ ____
ROOT
ATOM      1  C   UNL     1      -1.970  -0.964  -1.086  0.00  0.00    +0.328 C 
ATOM      2  N   UNL     1      -2.509   0.401  -0.921  0.00  0.00    -0.208 N 
ATOM      3  C   UNL     1      -3.086   0.815  -2.164  0.00  0.00    +0.275 C 
ATOM      4  O   UNL     1      -3.697   1.900  -2.354  0.00  0.00    -0.268 OA
ATOM      5  C   UNL     1      -2.928  -0.237  -3.128  0.00  0.00    +0.153 A 
ATOM      6  N   UNL     1      -3.328  -0.298  -4.421  0.00  0.00    -0.247 NA
ATOM      7  C   UNL     1      -3.071  -1.439  -5.127  0.00  0.00    +0.131 A 
ATOM      8  C   UNL     1      -2.408  -2.520  -4.504  0.00  0.00    +0.131 A 
ATOM      9  N   UNL     1      -2.026  -2.423  -3.196  0.00  0.00    -0.251 NA
ATOM     10  C   UNL     1      -2.290  -1.280  -2.516  0.00  0.00    +0.131 A 
ATOM     11  C   UNL     1      -2.581   1.112   0.325  0.00  0.00    +0.131 A 
ATOM     12  N   UNL     1      -2.710   0.419   1.490  0.00  0.00    -0.238 NA
ATOM     13  C   UNL     1      -2.768   1.040   2.698  0.00  0.00    +0.132 A 
ATOM     14  C   UNL     1      -2.693   2.432   2.772  0.00  0.00    +0.059 A 
ATOM     15 CL   UNL     1      -2.763   3.244   4.325  0.00  0.00    -0.082 Cl
ATOM     16  C   UNL     1      -2.554   3.170   1.595  0.00  0.00    +0.025 A 
ATOM     17  C   UNL     1      -2.495   2.513   0.364  0.00  0.00    +0.045 A 
ENDROOT
BRANCH   1  18
ATOM     18  O   UNL     1      -0.555  -0.960  -0.910  0.00  0.00    -0.422 OA
BRANCH  18  26
ATOM     19  C   UNL     1       5.455   0.433   0.990  0.00  0.00    +0.105 C 
ATOM     20  N   UNL     1       4.257  -0.373   0.710  0.00  0.00    -0.302 NA
ATOM     21  C   UNL     1       3.413  -0.453   1.915  0.00  0.00    +0.103 C 
ATOM     22  C   UNL     1       2.208  -1.361   1.659  0.00  0.00    +0.126 C 
ATOM     23  N   UNL     1       1.498  -0.941   0.443  0.00  0.00    -0.265 N 
ATOM     24  C   UNL     1       2.293  -0.647  -0.756  0.00  0.00    +0.126 C 
ATOM     25  C   UNL     1       3.495   0.231  -0.399  0.00  0.00    +0.103 C 
ATOM     26  C   UNL     1       0.079  -1.159   0.322  0.00  0.00    +0.405 C 
ATOM     27  O   UNL     1      -0.590  -1.544   1.321  0.00  0.00    -0.226 OA
ENDBRANCH  18  26
ENDBRANCH   1  18
TORSDOF 2
