REMARK  Name = 
REMARK  6 active torsions:
REMARK  status: ('A' for Active; 'I' for Inactive)
REMARK    1  A    between atoms: O_1  and  C_2
REMARK    2  A    between atoms: C_2  and  C_3
REMARK    3  A    between atoms: C_3  and  N_4
REMARK    4  A    between atoms: N_7  and  C_8
REMARK    5  A    between atoms: C_8  and  C_9
REMARK    6  A    between atoms: C_9  and  C_10
REMARK                            x       y       z     vdW  Elec       q    Type
REMARK                         _______ _______ _______ _____ _____    ______ ____
ROOT
ATOM      1  C   UNL     1      -1.147   0.094  -0.806  0.00  0.00    -0.017 C 
ATOM      2  C   UNL     1      -2.414   0.169  -0.351  0.00  0.00    -0.012 C 
ATOM      3  C   UNL     1      -2.890   1.401   0.326  0.00  0.00    -0.004 A 
ATOM      4  C   UNL     1      -2.144   2.011   1.349  0.00  0.00    +0.009 A 
ATOM      5  C   UNL     1      -2.691   3.072   2.078  0.00  0.00    +0.001 A 
ATOM      6  C   UNL     1      -3.987   3.518   1.805  0.00  0.00    +0.001 A 
ATOM      7  C   UNL     1      -4.736   2.919   0.788  0.00  0.00    +0.015 A 
ATOM      8  C   UNL     1      -4.186   1.874   0.038  0.00  0.00    +0.020 A 
ATOM      9  S   UNL     1      -5.094   1.186  -1.356  0.00  0.00    -0.088 S 
ATOM     10  C   UNL     1      -4.753  -0.514  -0.878  0.00  0.00    +0.021 A 
ATOM     11  C   UNL     1      -3.438  -0.896  -0.540  0.00  0.00    -0.002 A 
ATOM     12  C   UNL     1      -3.193  -2.224  -0.147  0.00  0.00    +0.029 A 
ATOM     13  C   UNL     1      -4.228  -3.166  -0.154  0.00  0.00    +0.042 A 
ATOM     14 CL   UNL     1      -3.907  -4.822   0.324  0.00  0.00    -0.084 Cl
ATOM     15  C   UNL     1      -5.524  -2.779  -0.507  0.00  0.00    +0.021 A 
ATOM     16  C   UNL     1      -5.789  -1.453  -0.856  0.00  0.00    +0.017 A 
ENDROOT
BRANCH   1  17
ATOM     17  C   UNL     1      -0.588  -1.013  -1.664  0.00  0.00    +0.043 C 
BRANCH  17  18
ATOM     18  C   UNL     1       0.538  -1.761  -0.939  0.00  0.00    +0.088 C 
BRANCH  18  22
ATOM     19  N   UNL     1       3.651   0.707   0.097  0.00  0.00    -0.298 NA
ATOM     20  C   UNL     1       3.622   0.423  -1.352  0.00  0.00    +0.100 C 
ATOM     21  C   UNL     1       2.609  -0.692  -1.682  0.00  0.00    +0.100 C 
ATOM     22  N   UNL     1       1.640  -0.841  -0.577  0.00  0.00    -0.300 NA
ATOM     23  C   UNL     1       2.328  -1.302   0.650  0.00  0.00    +0.100 C 
ATOM     24  C   UNL     1       3.636  -0.526   0.901  0.00  0.00    +0.100 C 
BRANCH  19  25
ATOM     25  C   UNL     1       4.680   1.697   0.495  0.00  0.00    +0.112 C 
BRANCH  25  26
ATOM     26  C   UNL     1       6.102   1.135   0.687  0.00  0.00    +0.171 C 
BRANCH  26  27
ATOM     27  O   UNL     1       6.631   0.682  -0.526  0.00  0.00    -0.394 OA
ATOM     28  H   UNL     1       7.535   0.327  -0.318  0.00  0.00    +0.209 HD
ENDBRANCH  26  27
ENDBRANCH  25  26
ENDBRANCH  19  25
ENDBRANCH  18  22
ENDBRANCH  17  18
ENDBRANCH   1  17
TORSDOF 6
