BETA-SECRETASE 1
     RDKit          3D

 21 24  0  0  0  0  0  0  0  0999 V2000
   20.2250   54.9250   86.9940 C   0  0  0  0  0  0  0  0  0  0  0  0
   21.5500   55.4030   87.5760 C   0  0  2  0  0  0  0  0  0  0  0  0
   22.3140   54.9040   89.9000 C   0  0  0  0  0  0  0  0  0  0  0  0
   22.5550   56.5550   90.4300 S   0  0  0  0  0  0  0  0  0  0  0  0
   22.5790   53.9780   90.8400 N   0  0  0  0  0  0  0  0  0  0  0  0
   21.8720   54.5440   88.7200 N   0  0  0  0  0  0  0  0  0  0  0  0
   19.2720   55.6690   87.7890 N   0  0  0  0  0  0  0  0  0  0  0  0
   19.8090   56.7580   88.5880 C   0  0  0  0  0  0  0  0  0  0  0  0
   21.2130   56.8390   88.0140 C   0  0  1  0  0  0  0  0  0  0  0  0
   22.2780   57.4930   88.9100 C   0  0  0  0  0  0  0  0  0  0  0  0
   17.9080   55.3340   87.8330 C   0  0  0  0  0  0  0  0  0  0  0  0
   17.1140   56.0320   88.6650 N   0  0  0  0  0  0  0  0  0  0  0  0
   15.8100   55.6890   88.6680 C   0  0  0  0  0  0  0  0  0  0  0  0
   15.3080   54.6680   87.8950 C   0  0  0  0  0  0  0  0  0  0  0  0
   16.2070   54.0170   87.0800 C   0  0  0  0  0  0  0  0  0  0  0  0
   17.5090   54.3380   87.0220 N   0  0  0  0  0  0  0  0  0  0  0  0
   22.6540   55.3900   86.5930 C   0  0  0  0  0  0  0  0  0  0  0  0
   22.6360   55.9030   85.3160 C   0  0  0  0  0  0  0  0  0  0  0  0
   23.8610   55.7380   84.6280 C   0  0  0  0  0  0  0  0  0  0  0  0
   24.8040   55.1040   85.3990 C   0  0  0  0  0  0  0  0  0  0  0  0
   24.1870   54.6950   86.9520 S   0  0  0  0  0  0  0  0  0  0  0  0
  1  2  1  0
  1  7  1  0
  2  6  1  0
  2  9  1  0
  2 17  1  6
  3  4  1  0
  3  5  1  0
  3  6  1  0
  4 10  1  0
  7  8  1  0
  7 11  1  0
  9  8  1  1
  9 10  1  0
 11 12  1  0
 11 16  1  0
 12 13  1  0
 13 14  1  0
 14 15  1  0
 15 16  1  0
 17 18  1  0
 17 21  1  0
 18 19  1  0
 19 20  1  0
 20 21  1  0
M  END
$$$$
