REMARK  Name = BETA-SECRETASE 1
REMARK  3 active torsions:
REMARK  status: ('A' for Active; 'I' for Inactive)
REMARK    1  A    between atoms: C_2  and  C_17
REMARK    2  A    between atoms: C_3  and  N_5
REMARK    3  A    between atoms: N_7  and  C_11
REMARK                            x       y       z     vdW  Elec       q    Type
REMARK                         _______ _______ _______ _____ _____    ______ ____
ROOT
ATOM      1  C   UNL     1      20.225  54.925  86.994  0.00  0.00    +0.000 C 
ATOM      2  C   UNL     1      21.550  55.403  87.576  0.00  0.00    +0.000 C 
ATOM      3  C   UNL     1      22.314  54.904  89.900  0.00  0.00    +0.000 C 
ATOM      4  S   UNL     1      22.555  56.555  90.430  0.00  0.00    +0.000 S 
ATOM      5  N   UNL     1      21.872  54.544  88.720  0.00  0.00    +0.000 NA
ATOM      6  N   UNL     1      19.272  55.669  87.789  0.00  0.00    +0.000 NA
ATOM      7  C   UNL     1      19.809  56.758  88.588  0.00  0.00    +0.000 C 
ATOM      8  C   UNL     1      21.213  56.839  88.014  0.00  0.00    +0.000 C 
ATOM      9  C   UNL     1      22.278  57.493  88.910  0.00  0.00    +0.000 C 
ATOM     10  H   UNL     1      22.577  53.897  88.367  0.00  0.00    +0.000 HD
ENDROOT
BRANCH   6  11
ATOM     11  C   UNL     1      17.908  55.334  87.833  0.00  0.00    +0.000 C 
ATOM     12  N   UNL     1      17.114  56.032  88.665  0.00  0.00    +0.000 NA
ATOM     13  C   UNL     1      15.810  55.689  88.668  0.00  0.00    +0.000 C 
ATOM     14  C   UNL     1      15.308  54.668  87.895  0.00  0.00    +0.000 C 
ATOM     15  C   UNL     1      16.207  54.017  87.080  0.00  0.00    +0.000 C 
ATOM     16  N   UNL     1      17.509  54.338  87.022  0.00  0.00    +0.000 NA
ATOM     17  H   UNL     1      17.177  57.016  88.403  0.00  0.00    +0.000 HD
ATOM     18  H   UNL     1      18.047  53.505  87.263  0.00  0.00    +0.000 HD
ENDBRANCH   6  11
BRANCH   2  19
ATOM     19  C   UNL     1      22.654  55.390  86.593  0.00  0.00    +0.000 C 
ATOM     20  C   UNL     1      22.636  55.903  85.316  0.00  0.00    +0.000 C 
ATOM     21  C   UNL     1      23.861  55.738  84.628  0.00  0.00    +0.000 C 
ATOM     22  C   UNL     1      24.804  55.104  85.399  0.00  0.00    +0.000 C 
ATOM     23  S   UNL     1      24.187  54.695  86.952  0.00  0.00    +0.000 S 
ENDBRANCH   2  19
BRANCH   3  24
ATOM     24  N   UNL     1      22.579  53.978  90.840  0.00  0.00    +0.000 NA
ATOM     25  H   UNL     1      22.339  54.349  91.760  0.00  0.00    +0.000 HD
ATOM     26  H   UNL     1      23.571  53.744  90.816  0.00  0.00    +0.000 HD
ENDBRANCH   3  24
TORSDOF 3
